
---------- Begin Simulation Statistics ----------
sim_seconds                                  0.002506                       # Number of seconds simulated
sim_ticks                                  2506483000                       # Number of ticks simulated
final_tick                                 2506483000                       # Number of ticks from beginning of simulation (restored from checkpoints and never reset)
sim_freq                                 1000000000000                       # Frequency of simulated ticks
host_inst_rate                                 241978                       # Simulator instruction rate (inst/s)
host_op_rate                                   371113                       # Simulator op (including micro ops) rate (op/s)
host_tick_rate                              117130421                       # Simulator tick rate (ticks/s)
host_mem_usage                                 652292                       # Number of bytes of host memory used
host_seconds                                    21.40                       # Real time elapsed on the host
sim_insts                                     5178095                       # Number of instructions simulated
sim_ops                                       7941464                       # Number of ops (including micro ops) simulated
system.clk_domain.voltage_domain.voltage            1                       # Voltage in Volts
system.clk_domain.clock                           500                       # Clock period in ticks
system.mem_ctrl.pwrStateResidencyTicks::UNDEFINED   2506483000                       # Cumulative time (in ticks) in various power states
system.mem_ctrl.bytes_read::.cpu.inst           28160                       # Number of bytes read from this memory
system.mem_ctrl.bytes_read::.cpu.data           73600                       # Number of bytes read from this memory
system.mem_ctrl.bytes_read::total              101760                       # Number of bytes read from this memory
system.mem_ctrl.bytes_inst_read::.cpu.inst        28160                       # Number of instructions bytes read from this memory
system.mem_ctrl.bytes_inst_read::total          28160                       # Number of instructions bytes read from this memory
system.mem_ctrl.num_reads::.cpu.inst              440                       # Number of read requests responded to by this memory
system.mem_ctrl.num_reads::.cpu.data             1150                       # Number of read requests responded to by this memory
system.mem_ctrl.num_reads::total                 1590                       # Number of read requests responded to by this memory
system.mem_ctrl.bw_read::.cpu.inst           11234866                       # Total read bandwidth from this memory (bytes/s)
system.mem_ctrl.bw_read::.cpu.data           29363854                       # Total read bandwidth from this memory (bytes/s)
system.mem_ctrl.bw_read::total               40598719                       # Total read bandwidth from this memory (bytes/s)
system.mem_ctrl.bw_inst_read::.cpu.inst      11234866                       # Instruction read bandwidth from this memory (bytes/s)
system.mem_ctrl.bw_inst_read::total          11234866                       # Instruction read bandwidth from this memory (bytes/s)
system.mem_ctrl.bw_total::.cpu.inst          11234866                       # Total bandwidth to/from this memory (bytes/s)
system.mem_ctrl.bw_total::.cpu.data          29363854                       # Total bandwidth to/from this memory (bytes/s)
system.mem_ctrl.bw_total::total              40598719                       # Total bandwidth to/from this memory (bytes/s)
system.mem_ctrl.avgPriority_.cpu.inst::samples       440.00                       # Average QoS priority value for accepted requests
system.mem_ctrl.avgPriority_.cpu.data::samples      1150.00                       # Average QoS priority value for accepted requests
system.mem_ctrl.priorityMinLatency       0.000000018750                       # per QoS priority minimum request to response latency (s)
system.mem_ctrl.priorityMaxLatency       0.000001099750                       # per QoS priority maximum request to response latency (s)
system.mem_ctrl.numReadWriteTurnArounds             0                       # Number of turnarounds from READ to WRITE
system.mem_ctrl.numWriteReadTurnArounds             0                       # Number of turnarounds from WRITE to READ
system.mem_ctrl.numStayReadState                 3488                       # Number of times bus staying in READ state
system.mem_ctrl.numStayWriteState                   0                       # Number of times bus staying in WRITE state
system.mem_ctrl.readReqs                         1590                       # Number of read requests accepted
system.mem_ctrl.writeReqs                           0                       # Number of write requests accepted
system.mem_ctrl.readBursts                       1590                       # Number of DRAM read bursts, including those serviced by the write queue
system.mem_ctrl.writeBursts                         0                       # Number of DRAM write bursts, including those merged in the write queue
system.mem_ctrl.bytesReadDRAM                  101760                       # Total number of bytes read from DRAM
system.mem_ctrl.bytesReadWrQ                        0                       # Total number of bytes read from write queue
system.mem_ctrl.bytesWritten                        0                       # Total number of bytes written to DRAM
system.mem_ctrl.bytesReadSys                   101760                       # Total read bytes from the system interface side
system.mem_ctrl.bytesWrittenSys                     0                       # Total written bytes from the system interface side
system.mem_ctrl.servicedByWrQ                       0                       # Number of DRAM read bursts serviced by the write queue
system.mem_ctrl.mergedWrBursts                      0                       # Number of DRAM write bursts merged with an existing one
system.mem_ctrl.neitherReadNorWriteReqs             0                       # Number of requests that are neither read nor write
system.mem_ctrl.perBankRdBursts::0                146                       # Per bank write bursts
system.mem_ctrl.perBankRdBursts::1                 81                       # Per bank write bursts
system.mem_ctrl.perBankRdBursts::2                150                       # Per bank write bursts
system.mem_ctrl.perBankRdBursts::3                137                       # Per bank write bursts
system.mem_ctrl.perBankRdBursts::4                130                       # Per bank write bursts
system.mem_ctrl.perBankRdBursts::5                137                       # Per bank write bursts
system.mem_ctrl.perBankRdBursts::6                193                       # Per bank write bursts
system.mem_ctrl.perBankRdBursts::7                172                       # Per bank write bursts
system.mem_ctrl.perBankRdBursts::8                 61                       # Per bank write bursts
system.mem_ctrl.perBankRdBursts::9                  7                       # Per bank write bursts
system.mem_ctrl.perBankRdBursts::10                26                       # Per bank write bursts
system.mem_ctrl.perBankRdBursts::11                11                       # Per bank write bursts
system.mem_ctrl.perBankRdBursts::12                46                       # Per bank write bursts
system.mem_ctrl.perBankRdBursts::13                84                       # Per bank write bursts
system.mem_ctrl.perBankRdBursts::14               114                       # Per bank write bursts
system.mem_ctrl.perBankRdBursts::15                95                       # Per bank write bursts
system.mem_ctrl.perBankWrBursts::0                  0                       # Per bank write bursts
system.mem_ctrl.perBankWrBursts::1                  0                       # Per bank write bursts
system.mem_ctrl.perBankWrBursts::2                  0                       # Per bank write bursts
system.mem_ctrl.perBankWrBursts::3                  0                       # Per bank write bursts
system.mem_ctrl.perBankWrBursts::4                  0                       # Per bank write bursts
system.mem_ctrl.perBankWrBursts::5                  0                       # Per bank write bursts
system.mem_ctrl.perBankWrBursts::6                  0                       # Per bank write bursts
system.mem_ctrl.perBankWrBursts::7                  0                       # Per bank write bursts
system.mem_ctrl.perBankWrBursts::8                  0                       # Per bank write bursts
system.mem_ctrl.perBankWrBursts::9                  0                       # Per bank write bursts
system.mem_ctrl.perBankWrBursts::10                 0                       # Per bank write bursts
system.mem_ctrl.perBankWrBursts::11                 0                       # Per bank write bursts
system.mem_ctrl.perBankWrBursts::12                 0                       # Per bank write bursts
system.mem_ctrl.perBankWrBursts::13                 0                       # Per bank write bursts
system.mem_ctrl.perBankWrBursts::14                 0                       # Per bank write bursts
system.mem_ctrl.perBankWrBursts::15                 0                       # Per bank write bursts
system.mem_ctrl.numRdRetry                          0                       # Number of times read queue was full causing retry
system.mem_ctrl.numWrRetry                          0                       # Number of times write queue was full causing retry
system.mem_ctrl.totGap                     2506399500                       # Total gap between requests
system.mem_ctrl.readPktSize::0                      0                       # Read request sizes (log2)
system.mem_ctrl.readPktSize::1                      0                       # Read request sizes (log2)
system.mem_ctrl.readPktSize::2                      0                       # Read request sizes (log2)
system.mem_ctrl.readPktSize::3                      0                       # Read request sizes (log2)
system.mem_ctrl.readPktSize::4                      0                       # Read request sizes (log2)
system.mem_ctrl.readPktSize::5                      0                       # Read request sizes (log2)
system.mem_ctrl.readPktSize::6                   1590                       # Read request sizes (log2)
system.mem_ctrl.writePktSize::0                     0                       # Write request sizes (log2)
system.mem_ctrl.writePktSize::1                     0                       # Write request sizes (log2)
system.mem_ctrl.writePktSize::2                     0                       # Write request sizes (log2)
system.mem_ctrl.writePktSize::3                     0                       # Write request sizes (log2)
system.mem_ctrl.writePktSize::4                     0                       # Write request sizes (log2)
system.mem_ctrl.writePktSize::5                     0                       # Write request sizes (log2)
system.mem_ctrl.writePktSize::6                     0                       # Write request sizes (log2)
system.mem_ctrl.rdQLenPdf::0                     1351                       # What read queue length does an incoming req see
system.mem_ctrl.rdQLenPdf::1                      190                       # What read queue length does an incoming req see
system.mem_ctrl.rdQLenPdf::2                       41                       # What read queue length does an incoming req see
system.mem_ctrl.rdQLenPdf::3                        6                       # What read queue length does an incoming req see
system.mem_ctrl.rdQLenPdf::4                        2                       # What read queue length does an incoming req see
system.mem_ctrl.rdQLenPdf::5                        0                       # What read queue length does an incoming req see
system.mem_ctrl.rdQLenPdf::6                        0                       # What read queue length does an incoming req see
system.mem_ctrl.rdQLenPdf::7                        0                       # What read queue length does an incoming req see
system.mem_ctrl.rdQLenPdf::8                        0                       # What read queue length does an incoming req see
system.mem_ctrl.rdQLenPdf::9                        0                       # What read queue length does an incoming req see
system.mem_ctrl.rdQLenPdf::10                       0                       # What read queue length does an incoming req see
system.mem_ctrl.rdQLenPdf::11                       0                       # What read queue length does an incoming req see
system.mem_ctrl.rdQLenPdf::12                       0                       # What read queue length does an incoming req see
system.mem_ctrl.rdQLenPdf::13                       0                       # What read queue length does an incoming req see
system.mem_ctrl.rdQLenPdf::14                       0                       # What read queue length does an incoming req see
system.mem_ctrl.rdQLenPdf::15                       0                       # What read queue length does an incoming req see
system.mem_ctrl.rdQLenPdf::16                       0                       # What read queue length does an incoming req see
system.mem_ctrl.rdQLenPdf::17                       0                       # What read queue length does an incoming req see
system.mem_ctrl.rdQLenPdf::18                       0                       # What read queue length does an incoming req see
system.mem_ctrl.rdQLenPdf::19                       0                       # What read queue length does an incoming req see
system.mem_ctrl.rdQLenPdf::20                       0                       # What read queue length does an incoming req see
system.mem_ctrl.rdQLenPdf::21                       0                       # What read queue length does an incoming req see
system.mem_ctrl.rdQLenPdf::22                       0                       # What read queue length does an incoming req see
system.mem_ctrl.rdQLenPdf::23                       0                       # What read queue length does an incoming req see
system.mem_ctrl.rdQLenPdf::24                       0                       # What read queue length does an incoming req see
system.mem_ctrl.rdQLenPdf::25                       0                       # What read queue length does an incoming req see
system.mem_ctrl.rdQLenPdf::26                       0                       # What read queue length does an incoming req see
system.mem_ctrl.rdQLenPdf::27                       0                       # What read queue length does an incoming req see
system.mem_ctrl.rdQLenPdf::28                       0                       # What read queue length does an incoming req see
system.mem_ctrl.rdQLenPdf::29                       0                       # What read queue length does an incoming req see
system.mem_ctrl.rdQLenPdf::30                       0                       # What read queue length does an incoming req see
system.mem_ctrl.rdQLenPdf::31                       0                       # What read queue length does an incoming req see
system.mem_ctrl.wrQLenPdf::0                        0                       # What write queue length does an incoming req see
system.mem_ctrl.wrQLenPdf::1                        0                       # What write queue length does an incoming req see
system.mem_ctrl.wrQLenPdf::2                        0                       # What write queue length does an incoming req see
system.mem_ctrl.wrQLenPdf::3                        0                       # What write queue length does an incoming req see
system.mem_ctrl.wrQLenPdf::4                        0                       # What write queue length does an incoming req see
system.mem_ctrl.wrQLenPdf::5                        0                       # What write queue length does an incoming req see
system.mem_ctrl.wrQLenPdf::6                        0                       # What write queue length does an incoming req see
system.mem_ctrl.wrQLenPdf::7                        0                       # What write queue length does an incoming req see
system.mem_ctrl.wrQLenPdf::8                        0                       # What write queue length does an incoming req see
system.mem_ctrl.wrQLenPdf::9                        0                       # What write queue length does an incoming req see
system.mem_ctrl.wrQLenPdf::10                       0                       # What write queue length does an incoming req see
system.mem_ctrl.wrQLenPdf::11                       0                       # What write queue length does an incoming req see
system.mem_ctrl.wrQLenPdf::12                       0                       # What write queue length does an incoming req see
system.mem_ctrl.wrQLenPdf::13                       0                       # What write queue length does an incoming req see
system.mem_ctrl.wrQLenPdf::14                       0                       # What write queue length does an incoming req see
system.mem_ctrl.wrQLenPdf::15                       0                       # What write queue length does an incoming req see
system.mem_ctrl.wrQLenPdf::16                       0                       # What write queue length does an incoming req see
system.mem_ctrl.wrQLenPdf::17                       0                       # What write queue length does an incoming req see
system.mem_ctrl.wrQLenPdf::18                       0                       # What write queue length does an incoming req see
system.mem_ctrl.wrQLenPdf::19                       0                       # What write queue length does an incoming req see
system.mem_ctrl.wrQLenPdf::20                       0                       # What write queue length does an incoming req see
system.mem_ctrl.wrQLenPdf::21                       0                       # What write queue length does an incoming req see
system.mem_ctrl.wrQLenPdf::22                       0                       # What write queue length does an incoming req see
system.mem_ctrl.wrQLenPdf::23                       0                       # What write queue length does an incoming req see
system.mem_ctrl.wrQLenPdf::24                       0                       # What write queue length does an incoming req see
system.mem_ctrl.wrQLenPdf::25                       0                       # What write queue length does an incoming req see
system.mem_ctrl.wrQLenPdf::26                       0                       # What write queue length does an incoming req see
system.mem_ctrl.wrQLenPdf::27                       0                       # What write queue length does an incoming req see
system.mem_ctrl.wrQLenPdf::28                       0                       # What write queue length does an incoming req see
system.mem_ctrl.wrQLenPdf::29                       0                       # What write queue length does an incoming req see
system.mem_ctrl.wrQLenPdf::30                       0                       # What write queue length does an incoming req see
system.mem_ctrl.wrQLenPdf::31                       0                       # What write queue length does an incoming req see
system.mem_ctrl.wrQLenPdf::32                       0                       # What write queue length does an incoming req see
system.mem_ctrl.wrQLenPdf::33                       0                       # What write queue length does an incoming req see
system.mem_ctrl.wrQLenPdf::34                       0                       # What write queue length does an incoming req see
system.mem_ctrl.wrQLenPdf::35                       0                       # What write queue length does an incoming req see
system.mem_ctrl.wrQLenPdf::36                       0                       # What write queue length does an incoming req see
system.mem_ctrl.wrQLenPdf::37                       0                       # What write queue length does an incoming req see
system.mem_ctrl.wrQLenPdf::38                       0                       # What write queue length does an incoming req see
system.mem_ctrl.wrQLenPdf::39                       0                       # What write queue length does an incoming req see
system.mem_ctrl.wrQLenPdf::40                       0                       # What write queue length does an incoming req see
system.mem_ctrl.wrQLenPdf::41                       0                       # What write queue length does an incoming req see
system.mem_ctrl.wrQLenPdf::42                       0                       # What write queue length does an incoming req see
system.mem_ctrl.wrQLenPdf::43                       0                       # What write queue length does an incoming req see
system.mem_ctrl.wrQLenPdf::44                       0                       # What write queue length does an incoming req see
system.mem_ctrl.wrQLenPdf::45                       0                       # What write queue length does an incoming req see
system.mem_ctrl.wrQLenPdf::46                       0                       # What write queue length does an incoming req see
system.mem_ctrl.wrQLenPdf::47                       0                       # What write queue length does an incoming req see
system.mem_ctrl.wrQLenPdf::48                       0                       # What write queue length does an incoming req see
system.mem_ctrl.wrQLenPdf::49                       0                       # What write queue length does an incoming req see
system.mem_ctrl.wrQLenPdf::50                       0                       # What write queue length does an incoming req see
system.mem_ctrl.wrQLenPdf::51                       0                       # What write queue length does an incoming req see
system.mem_ctrl.wrQLenPdf::52                       0                       # What write queue length does an incoming req see
system.mem_ctrl.wrQLenPdf::53                       0                       # What write queue length does an incoming req see
system.mem_ctrl.wrQLenPdf::54                       0                       # What write queue length does an incoming req see
system.mem_ctrl.wrQLenPdf::55                       0                       # What write queue length does an incoming req see
system.mem_ctrl.wrQLenPdf::56                       0                       # What write queue length does an incoming req see
system.mem_ctrl.wrQLenPdf::57                       0                       # What write queue length does an incoming req see
system.mem_ctrl.wrQLenPdf::58                       0                       # What write queue length does an incoming req see
system.mem_ctrl.wrQLenPdf::59                       0                       # What write queue length does an incoming req see
system.mem_ctrl.wrQLenPdf::60                       0                       # What write queue length does an incoming req see
system.mem_ctrl.wrQLenPdf::61                       0                       # What write queue length does an incoming req see
system.mem_ctrl.wrQLenPdf::62                       0                       # What write queue length does an incoming req see
system.mem_ctrl.wrQLenPdf::63                       0                       # What write queue length does an incoming req see
system.mem_ctrl.bytesPerActivate::samples          403                       # Bytes accessed per row activation
system.mem_ctrl.bytesPerActivate::mean     248.218362                       # Bytes accessed per row activation
system.mem_ctrl.bytesPerActivate::gmean    138.735813                       # Bytes accessed per row activation
system.mem_ctrl.bytesPerActivate::stdev    282.761281                       # Bytes accessed per row activation
system.mem_ctrl.bytesPerActivate::0-127           238     59.06%     59.06% # Bytes accessed per row activation
system.mem_ctrl.bytesPerActivate::128-255           38      9.43%     68.49% # Bytes accessed per row activation
system.mem_ctrl.bytesPerActivate::256-383           18      4.47%     72.95% # Bytes accessed per row activation
system.mem_ctrl.bytesPerActivate::384-511           14      3.47%     76.43% # Bytes accessed per row activation
system.mem_ctrl.bytesPerActivate::512-639            7      1.74%     78.16% # Bytes accessed per row activation
system.mem_ctrl.bytesPerActivate::640-767           68     16.87%     95.04% # Bytes accessed per row activation
system.mem_ctrl.bytesPerActivate::768-895            3      0.74%     95.78% # Bytes accessed per row activation
system.mem_ctrl.bytesPerActivate::896-1023            1      0.25%     96.03% # Bytes accessed per row activation
system.mem_ctrl.bytesPerActivate::1024-1151           16      3.97%    100.00% # Bytes accessed per row activation
system.mem_ctrl.bytesPerActivate::total           403                       # Bytes accessed per row activation
system.mem_ctrl.masterReadBytes::.cpu.inst        28160                       # Per-master bytes read from memory
system.mem_ctrl.masterReadBytes::.cpu.data        73600                       # Per-master bytes read from memory
system.mem_ctrl.masterReadRate::.cpu.inst 11234865.746147092432                       # Per-master bytes read from memory rate (Bytes/sec)
system.mem_ctrl.masterReadRate::.cpu.data 29363853.654702626169                       # Per-master bytes read from memory rate (Bytes/sec)
system.mem_ctrl.masterReadAccesses::.cpu.inst          440                       # Per-master read serviced memory accesses
system.mem_ctrl.masterReadAccesses::.cpu.data         1150                       # Per-master read serviced memory accesses
system.mem_ctrl.masterReadTotalLat::.cpu.inst     15593750                       # Per-master read total memory access latency
system.mem_ctrl.masterReadTotalLat::.cpu.data     64753500                       # Per-master read total memory access latency
system.mem_ctrl.masterReadAvgLat::.cpu.inst     35440.34                       # Per-master read average memory access latency
system.mem_ctrl.masterReadAvgLat::.cpu.data     56307.39                       # Per-master read average memory access latency
system.mem_ctrl.totQLat                      50534750                       # Total ticks spent queuing
system.mem_ctrl.totMemAccLat                 80347250                       # Total ticks spent from burst creation until serviced by the DRAM
system.mem_ctrl.totBusLat                     7950000                       # Total ticks spent in databus transfers
system.mem_ctrl.avgQLat                      31782.86                       # Average queueing delay per DRAM burst
system.mem_ctrl.avgBusLat                     5000.00                       # Average bus latency per DRAM burst
system.mem_ctrl.avgMemAccLat                 50532.86                       # Average memory access latency per DRAM burst
system.mem_ctrl.avgRdBW                         40.60                       # Average DRAM read bandwidth in MiByte/s
system.mem_ctrl.avgWrBW                          0.00                       # Average achieved write bandwidth in MiByte/s
system.mem_ctrl.avgRdBWSys                      40.60                       # Average system read bandwidth in MiByte/s
system.mem_ctrl.avgWrBWSys                       0.00                       # Average system write bandwidth in MiByte/s
system.mem_ctrl.peakBW                       12800.00                       # Theoretical peak bandwidth in MiByte/s
system.mem_ctrl.busUtil                          0.32                       # Data bus utilization in percentage
system.mem_ctrl.busUtilRead                      0.32                       # Data bus utilization in percentage for reads
system.mem_ctrl.busUtilWrite                     0.00                       # Data bus utilization in percentage for writes
system.mem_ctrl.avgRdQLen                        1.01                       # Average read queue length when enqueuing
system.mem_ctrl.avgWrQLen                        0.00                       # Average write queue length when enqueuing
system.mem_ctrl.readRowHits                      1177                       # Number of row buffer hits during reads
system.mem_ctrl.writeRowHits                        0                       # Number of row buffer hits during writes
system.mem_ctrl.readRowHitRate                  74.03                       # Row buffer hit rate for reads
system.mem_ctrl.writeRowHitRate                   nan                       # Row buffer hit rate for writes
system.mem_ctrl.avgGap                     1576351.89                       # Average gap between requests
system.mem_ctrl.pageHitRate                     74.03                       # Row buffer hit rate, read and write combined
system.mem_ctrl_0.actEnergy                   1892100                       # Energy for activate commands per rank (pJ)
system.mem_ctrl_0.preEnergy                    990495                       # Energy for precharge commands per rank (pJ)
system.mem_ctrl_0.readEnergy                  8182440                       # Energy for read commands per rank (pJ)
system.mem_ctrl_0.writeEnergy                       0                       # Energy for write commands per rank (pJ)
system.mem_ctrl_0.refreshEnergy          145669680.000000                       # Energy for refresh commands per rank (pJ)
system.mem_ctrl_0.actBackEnergy              41087880                       # Energy for active background per rank (pJ)
system.mem_ctrl_0.preBackEnergy               6482400                       # Energy for precharge background per rank (pJ)
system.mem_ctrl_0.actPowerDownEnergy        490209120                       # Energy for active power-down per rank (pJ)
system.mem_ctrl_0.prePowerDownEnergy        259783680                       # Energy for precharge power-down per rank (pJ)
system.mem_ctrl_0.selfRefreshEnergy         174838200                       # Energy for self refresh per rank (pJ)
system.mem_ctrl_0.totalEnergy              1129135995                       # Total energy per rank (pJ)
system.mem_ctrl_0.averagePower             450.486197                       # Core power per rank (mW)
system.mem_ctrl_0.totalIdleTime            2399408750                       # Total Idle time Per DRAM Rank
system.mem_ctrl_0.memoryStateTime::IDLE      10884500                       # Time in different power states
system.mem_ctrl_0.memoryStateTime::REF       61620000                       # Time in different power states
system.mem_ctrl_0.memoryStateTime::SREF     647955250                       # Time in different power states
system.mem_ctrl_0.memoryStateTime::PRE_PDN    676520750                       # Time in different power states
system.mem_ctrl_0.memoryStateTime::ACT       34529500                       # Time in different power states
system.mem_ctrl_0.memoryStateTime::ACT_PDN   1074973000                       # Time in different power states
system.mem_ctrl_1.actEnergy                   1056720                       # Energy for activate commands per rank (pJ)
system.mem_ctrl_1.preEnergy                    538890                       # Energy for precharge commands per rank (pJ)
system.mem_ctrl_1.readEnergy                  3170160                       # Energy for read commands per rank (pJ)
system.mem_ctrl_1.writeEnergy                       0                       # Energy for write commands per rank (pJ)
system.mem_ctrl_1.refreshEnergy          53473680.000000                       # Energy for refresh commands per rank (pJ)
system.mem_ctrl_1.actBackEnergy              15244080                       # Energy for active background per rank (pJ)
system.mem_ctrl_1.preBackEnergy               2882880                       # Energy for precharge background per rank (pJ)
system.mem_ctrl_1.actPowerDownEnergy        150198420                       # Energy for active power-down per rank (pJ)
system.mem_ctrl_1.prePowerDownEnergy        121131840                       # Energy for precharge power-down per rank (pJ)
system.mem_ctrl_1.selfRefreshEnergy         446912220                       # Energy for self refresh per rank (pJ)
system.mem_ctrl_1.totalEnergy               794670600                       # Total energy per rank (pJ)
system.mem_ctrl_1.averagePower             317.046076                       # Core power per rank (mW)
system.mem_ctrl_1.totalIdleTime            2465157750                       # Total Idle time Per DRAM Rank
system.mem_ctrl_1.memoryStateTime::IDLE       5488500                       # Time in different power states
system.mem_ctrl_1.memoryStateTime::REF       22620000                       # Time in different power states
system.mem_ctrl_1.memoryStateTime::SREF    1820576750                       # Time in different power states
system.mem_ctrl_1.memoryStateTime::PRE_PDN    315438500                       # Time in different power states
system.mem_ctrl_1.memoryStateTime::ACT       12974000                       # Time in different power states
system.mem_ctrl_1.memoryStateTime::ACT_PDN    329385250                       # Time in different power states
system.pwrStateResidencyTicks::UNDEFINED   2506483000                       # Cumulative time (in ticks) in various power states
system.cpu.branchPred.lookups                  313490                       # Number of BP lookups
system.cpu.branchPred.condPredicted            313490                       # Number of conditional branches predicted
system.cpu.branchPred.condIncorrect              4631                       # Number of conditional branches incorrect
system.cpu.branchPred.BTBLookups               275493                       # Number of BTB lookups
system.cpu.branchPred.BTBHits                       0                       # Number of BTB hits
system.cpu.branchPred.BTBCorrect                    0                       # Number of correct BTB predictions (this stat may not work properly.
system.cpu.branchPred.BTBHitPct              0.000000                       # BTB Hit Percentage
system.cpu.branchPred.usedRAS                   37934                       # Number of times the RAS was used to get a target.
system.cpu.branchPred.RASInCorrect                130                       # Number of incorrect RAS predictions.
system.cpu.branchPred.indirectLookups          275493                       # Number of indirect predictor lookups.
system.cpu.branchPred.indirectHits             223910                       # Number of indirect target hits.
system.cpu.branchPred.indirectMisses            51583                       # Number of indirect misses.
system.cpu.branchPredindirectMispredicted          636                       # Number of mispredicted indirect branches.
system.cpu.dtb.walker.pwrStateResidencyTicks::UNDEFINED   2506483000                       # Cumulative time (in ticks) in various power states
system.cpu.dtb.rdAccesses                     1947939                       # TLB accesses on read requests
system.cpu.dtb.wrAccesses                      335928                       # TLB accesses on write requests
system.cpu.dtb.rdMisses                            82                       # TLB misses on read requests
system.cpu.dtb.wrMisses                            40                       # TLB misses on write requests
system.cpu.apic_clk_domain.clock                 8000                       # Clock period in ticks
system.cpu.interrupts.pwrStateResidencyTicks::UNDEFINED   2506483000                       # Cumulative time (in ticks) in various power states
system.cpu.itb.walker.pwrStateResidencyTicks::UNDEFINED   2506483000                       # Cumulative time (in ticks) in various power states
system.cpu.itb.rdAccesses                           0                       # TLB accesses on read requests
system.cpu.itb.wrAccesses                      548634                       # TLB accesses on write requests
system.cpu.itb.rdMisses                             0                       # TLB misses on read requests
system.cpu.itb.wrMisses                           123                       # TLB misses on write requests
system.cpu.workload.numSyscalls                     9                       # Number of system calls
system.cpu.pwrStateResidencyTicks::ON      2506483000                       # Cumulative time (in ticks) in various power states
system.cpu.numCycles                          5012967                       # number of cpu cycles simulated
system.cpu.numWorkItemsStarted                      0                       # number of work items this cpu started
system.cpu.numWorkItemsCompleted                    0                       # number of work items this cpu completed
system.cpu.fetch.icacheStallCycles              33599                       # Number of cycles fetch is stalled on an Icache miss
system.cpu.fetch.Insts                        5354228                       # Number of instructions fetch has processed
system.cpu.fetch.Branches                      313490                       # Number of branches that fetch encountered
system.cpu.fetch.predictedBranches             261844                       # Number of branches that fetch has predicted taken
system.cpu.fetch.Cycles                       4950048                       # Number of cycles fetch has run and was not squashing or blocked
system.cpu.fetch.SquashCycles                    9432                       # Number of cycles fetch has spent squashing
system.cpu.fetch.MiscStallCycles                   60                       # Number of cycles fetch has spent waiting on interrupts, or bad addresses, or out of MSHRs
system.cpu.fetch.PendingTrapStallCycles           866                       # Number of stall cycles due to pending traps
system.cpu.fetch.PendingQuiesceStallCycles           18                       # Number of stall cycles due to pending quiesce instructions
system.cpu.fetch.IcacheWaitRetryStallCycles           19                       # Number of stall cycles due to full MSHR
system.cpu.fetch.CacheLines                    548551                       # Number of cache lines fetched
system.cpu.fetch.IcacheSquashes                   304                       # Number of outstanding Icache misses that were squashed
system.cpu.fetch.rateDist::samples            4989326                       # Number of instructions fetched each cycle (Total)
system.cpu.fetch.rateDist::mean              1.644663                       # Number of instructions fetched each cycle (Total)
system.cpu.fetch.rateDist::stdev             0.717551                       # Number of instructions fetched each cycle (Total)
system.cpu.fetch.rateDist::underflows               0      0.00%      0.00% # Number of instructions fetched each cycle (Total)
system.cpu.fetch.rateDist::0                   712993     14.29%     14.29% # Number of instructions fetched each cycle (Total)
system.cpu.fetch.rateDist::1                   346904      6.95%     21.24% # Number of instructions fetched each cycle (Total)
system.cpu.fetch.rateDist::2                  3929429     78.76%    100.00% # Number of instructions fetched each cycle (Total)
system.cpu.fetch.rateDist::overflows                0      0.00%    100.00% # Number of instructions fetched each cycle (Total)
system.cpu.fetch.rateDist::min_value                0                       # Number of instructions fetched each cycle (Total)
system.cpu.fetch.rateDist::max_value                2                       # Number of instructions fetched each cycle (Total)
system.cpu.fetch.rateDist::total              4989326                       # Number of instructions fetched each cycle (Total)
system.cpu.fetch.branchRate                  0.062536                       # Number of branch fetches per cycle
system.cpu.fetch.rate                        1.068076                       # Number of inst fetches per cycle
system.cpu.decode.IdleCycles                   248182                       # Number of cycles decode is idle
system.cpu.decode.BlockedCycles                648861                       # Number of cycles decode is blocked
system.cpu.decode.RunCycles                   3816029                       # Number of cycles decode is running
system.cpu.decode.UnblockCycles                271538                       # Number of cycles decode is unblocking
system.cpu.decode.SquashCycles                   4716                       # Number of cycles decode is squashing
system.cpu.decode.DecodedInsts                8086683                       # Number of instructions handled by decode
system.cpu.decode.SquashedInsts                 14258                       # Number of squashed instructions handled by decode
system.cpu.rename.SquashCycles                   4716                       # Number of cycles rename is squashing
system.cpu.rename.IdleCycles                   396581                       # Number of cycles rename is idle
system.cpu.rename.BlockCycles                   36541                       # Number of cycles rename is blocking
system.cpu.rename.serializeStallCycles           1341                       # count of cycles rename stalled for serializing inst
system.cpu.rename.RunCycles                   3937035                       # Number of cycles rename is running
system.cpu.rename.UnblockCycles                613112                       # Number of cycles rename is unblocking
system.cpu.rename.RenamedInsts                8070728                       # Number of instructions processed by rename
system.cpu.rename.SquashedInsts                  8485                       # Number of squashed instructions processed by rename
system.cpu.rename.ROBFullEvents                    25                       # Number of times rename has blocked due to ROB full
system.cpu.rename.IQFullEvents                  53433                       # Number of times rename has blocked due to IQ full
system.cpu.rename.LQFullEvents                 292780                       # Number of times rename has blocked due to LQ full
system.cpu.rename.SQFullEvents                 120757                       # Number of times rename has blocked due to SQ full
system.cpu.rename.FullRegisterEvents            11416                       # Number of times there has been no free registers
system.cpu.rename.RenamedOperands            10781377                       # Number of destination operands rename has renamed
system.cpu.rename.RenameLookups              18200811                       # Number of register rename lookups that rename has made
system.cpu.rename.int_rename_lookups         12773004                       # Number of integer rename lookups
system.cpu.rename.fp_rename_lookups            696900                       # Number of floating rename lookups
system.cpu.rename.CommittedMaps              10606159                       # Number of HB maps that are committed
system.cpu.rename.UndoneMaps                   175218                       # Number of HB maps that are undone due to squashing
system.cpu.rename.serializingInsts                 21                       # count of serializing insts renamed
system.cpu.rename.tempSerializingInsts             18                       # count of temporary serializing insts renamed
system.cpu.rename.skidInsts                    347897                       # count of insts added to the skid buffer
system.cpu.memDep0.insertedLoads              1963419                       # Number of loads inserted to the mem dependence unit.
system.cpu.memDep0.insertedStores              337348                       # Number of stores inserted to the mem dependence unit.
system.cpu.memDep0.conflictingLoads            308086                       # Number of conflicting loads.
system.cpu.memDep0.conflictingStores               69                       # Number of conflicting stores.
system.cpu.iq.iqInstsAdded                    8055690                       # Number of instructions added to the IQ (excludes non-spec)
system.cpu.iq.iqNonSpecInstsAdded                 105                       # Number of non-speculative instructions added to the IQ
system.cpu.iq.iqInstsIssued                   7994079                       # Number of instructions issued
system.cpu.iq.iqSquashedInstsIssued             11173                       # Number of squashed instructions issued
system.cpu.iq.iqSquashedInstsExamined          114330                       # Number of squashed instructions iterated over during squash; mainly for profiling
system.cpu.iq.iqSquashedOperandsExamined       161131                       # Number of squashed operands that are examined and possibly removed from graph
system.cpu.iq.iqSquashedNonSpecRemoved             96                       # Number of squashed non-spec instructions that were removed
system.cpu.iq.issued_per_cycle::samples       4989326                       # Number of insts issued each cycle
system.cpu.iq.issued_per_cycle::mean         1.602236                       # Number of insts issued each cycle
system.cpu.iq.issued_per_cycle::stdev        0.670568                       # Number of insts issued each cycle
system.cpu.iq.issued_per_cycle::underflows            0      0.00%      0.00% # Number of insts issued each cycle
system.cpu.iq.issued_per_cycle::0              524163     10.51%     10.51% # Number of insts issued each cycle
system.cpu.iq.issued_per_cycle::1              936247     18.76%     29.27% # Number of insts issued each cycle
system.cpu.iq.issued_per_cycle::2             3528916     70.73%    100.00% # Number of insts issued each cycle
system.cpu.iq.issued_per_cycle::overflows            0      0.00%    100.00% # Number of insts issued each cycle
system.cpu.iq.issued_per_cycle::min_value            0                       # Number of insts issued each cycle
system.cpu.iq.issued_per_cycle::max_value            2                       # Number of insts issued each cycle
system.cpu.iq.issued_per_cycle::total         4989326                       # Number of insts issued each cycle
system.cpu.iq.fu_full::No_OpClass                   0      0.00%      0.00% # attempts to use FU when none available
system.cpu.iq.fu_full::IntAlu                       0      0.00%      0.00% # attempts to use FU when none available
system.cpu.iq.fu_full::IntMult                      0      0.00%      0.00% # attempts to use FU when none available
system.cpu.iq.fu_full::IntDiv                       1      0.00%      0.00% # attempts to use FU when none available
system.cpu.iq.fu_full::FloatAdd                  8372      1.71%      1.71% # attempts to use FU when none available
system.cpu.iq.fu_full::FloatCmp                     0      0.00%      1.71% # attempts to use FU when none available
system.cpu.iq.fu_full::FloatCvt                     0      0.00%      1.71% # attempts to use FU when none available
system.cpu.iq.fu_full::FloatMult                    0      0.00%      1.71% # attempts to use FU when none available
system.cpu.iq.fu_full::FloatMultAcc                 0      0.00%      1.71% # attempts to use FU when none available
system.cpu.iq.fu_full::FloatDiv                     0      0.00%      1.71% # attempts to use FU when none available
system.cpu.iq.fu_full::FloatMisc                    0      0.00%      1.71% # attempts to use FU when none available
system.cpu.iq.fu_full::FloatSqrt                    0      0.00%      1.71% # attempts to use FU when none available
system.cpu.iq.fu_full::SimdAdd                    250      0.05%      1.76% # attempts to use FU when none available
system.cpu.iq.fu_full::SimdAddAcc                   0      0.00%      1.76% # attempts to use FU when none available
system.cpu.iq.fu_full::SimdAlu                     53      0.01%      1.77% # attempts to use FU when none available
system.cpu.iq.fu_full::SimdCmp                      0      0.00%      1.77% # attempts to use FU when none available
system.cpu.iq.fu_full::SimdCvt                     19      0.00%      1.78% # attempts to use FU when none available
system.cpu.iq.fu_full::SimdMisc                   117      0.02%      1.80% # attempts to use FU when none available
system.cpu.iq.fu_full::SimdMult                     0      0.00%      1.80% # attempts to use FU when none available
system.cpu.iq.fu_full::SimdMultAcc                  0      0.00%      1.80% # attempts to use FU when none available
system.cpu.iq.fu_full::SimdShift                  124      0.03%      1.83% # attempts to use FU when none available
system.cpu.iq.fu_full::SimdShiftAcc                 0      0.00%      1.83% # attempts to use FU when none available
system.cpu.iq.fu_full::SimdSqrt                     0      0.00%      1.83% # attempts to use FU when none available
system.cpu.iq.fu_full::SimdFloatAdd                 0      0.00%      1.83% # attempts to use FU when none available
system.cpu.iq.fu_full::SimdFloatAlu                 0      0.00%      1.83% # attempts to use FU when none available
system.cpu.iq.fu_full::SimdFloatCmp                 0      0.00%      1.83% # attempts to use FU when none available
system.cpu.iq.fu_full::SimdFloatCvt                 0      0.00%      1.83% # attempts to use FU when none available
system.cpu.iq.fu_full::SimdFloatDiv                 0      0.00%      1.83% # attempts to use FU when none available
system.cpu.iq.fu_full::SimdFloatMisc                0      0.00%      1.83% # attempts to use FU when none available
system.cpu.iq.fu_full::SimdFloatMult                0      0.00%      1.83% # attempts to use FU when none available
system.cpu.iq.fu_full::SimdFloatMultAcc             0      0.00%      1.83% # attempts to use FU when none available
system.cpu.iq.fu_full::SimdFloatSqrt                0      0.00%      1.83% # attempts to use FU when none available
system.cpu.iq.fu_full::SimdAes                      0      0.00%      1.83% # attempts to use FU when none available
system.cpu.iq.fu_full::SimdAesMix                   0      0.00%      1.83% # attempts to use FU when none available
system.cpu.iq.fu_full::SimdSha1Hash                 0      0.00%      1.83% # attempts to use FU when none available
system.cpu.iq.fu_full::SimdSha1Hash2                0      0.00%      1.83% # attempts to use FU when none available
system.cpu.iq.fu_full::SimdSha256Hash               0      0.00%      1.83% # attempts to use FU when none available
system.cpu.iq.fu_full::SimdSha256Hash2              0      0.00%      1.83% # attempts to use FU when none available
system.cpu.iq.fu_full::SimdShaSigma2                0      0.00%      1.83% # attempts to use FU when none available
system.cpu.iq.fu_full::SimdShaSigma3                0      0.00%      1.83% # attempts to use FU when none available
system.cpu.iq.fu_full::MemRead                 474609     97.02%     98.85% # attempts to use FU when none available
system.cpu.iq.fu_full::MemWrite                  5649      1.15%    100.00% # attempts to use FU when none available
system.cpu.iq.fu_full::FloatMemRead                 0      0.00%    100.00% # attempts to use FU when none available
system.cpu.iq.fu_full::FloatMemWrite                0      0.00%    100.00% # attempts to use FU when none available
system.cpu.iq.fu_full::IprAccess                    0      0.00%    100.00% # attempts to use FU when none available
system.cpu.iq.fu_full::InstPrefetch                 0      0.00%    100.00% # attempts to use FU when none available
system.cpu.iq.FU_type_0::No_OpClass               281      0.00%      0.00% # Type of FU issued
system.cpu.iq.FU_type_0::IntAlu               4547669     56.89%     56.89% # Type of FU issued
system.cpu.iq.FU_type_0::IntMult               399314      5.00%     61.89% # Type of FU issued
system.cpu.iq.FU_type_0::IntDiv                    45      0.00%     61.89% # Type of FU issued
system.cpu.iq.FU_type_0::FloatAdd              548352      6.86%     68.75% # Type of FU issued
system.cpu.iq.FU_type_0::FloatCmp                   0      0.00%     68.75% # Type of FU issued
system.cpu.iq.FU_type_0::FloatCvt                   0      0.00%     68.75% # Type of FU issued
system.cpu.iq.FU_type_0::FloatMult                  0      0.00%     68.75% # Type of FU issued
system.cpu.iq.FU_type_0::FloatMultAcc               0      0.00%     68.75% # Type of FU issued
system.cpu.iq.FU_type_0::FloatDiv                   0      0.00%     68.75% # Type of FU issued
system.cpu.iq.FU_type_0::FloatMisc                  0      0.00%     68.75% # Type of FU issued
system.cpu.iq.FU_type_0::FloatSqrt                  0      0.00%     68.75% # Type of FU issued
system.cpu.iq.FU_type_0::SimdAdd                  375      0.00%     68.75% # Type of FU issued
system.cpu.iq.FU_type_0::SimdAddAcc                 0      0.00%     68.75% # Type of FU issued
system.cpu.iq.FU_type_0::SimdAlu                 6093      0.08%     68.83% # Type of FU issued
system.cpu.iq.FU_type_0::SimdCmp                    0      0.00%     68.83% # Type of FU issued
system.cpu.iq.FU_type_0::SimdCvt                  108      0.00%     68.83% # Type of FU issued
system.cpu.iq.FU_type_0::SimdMisc               12215      0.15%     68.98% # Type of FU issued
system.cpu.iq.FU_type_0::SimdMult                   0      0.00%     68.98% # Type of FU issued
system.cpu.iq.FU_type_0::SimdMultAcc                0      0.00%     68.98% # Type of FU issued
system.cpu.iq.FU_type_0::SimdShift                186      0.00%     68.98% # Type of FU issued
system.cpu.iq.FU_type_0::SimdShiftAcc               0      0.00%     68.98% # Type of FU issued
system.cpu.iq.FU_type_0::SimdSqrt                   0      0.00%     68.98% # Type of FU issued
system.cpu.iq.FU_type_0::SimdFloatAdd           90000      1.13%     70.11% # Type of FU issued
system.cpu.iq.FU_type_0::SimdFloatAlu               0      0.00%     70.11% # Type of FU issued
system.cpu.iq.FU_type_0::SimdFloatCmp               0      0.00%     70.11% # Type of FU issued
system.cpu.iq.FU_type_0::SimdFloatCvt           12000      0.15%     70.26% # Type of FU issued
system.cpu.iq.FU_type_0::SimdFloatDiv               0      0.00%     70.26% # Type of FU issued
system.cpu.iq.FU_type_0::SimdFloatMisc              0      0.00%     70.26% # Type of FU issued
system.cpu.iq.FU_type_0::SimdFloatMult          90000      1.13%     71.39% # Type of FU issued
system.cpu.iq.FU_type_0::SimdFloatMultAcc            0      0.00%     71.39% # Type of FU issued
system.cpu.iq.FU_type_0::SimdFloatSqrt              0      0.00%     71.39% # Type of FU issued
system.cpu.iq.FU_type_0::SimdAes                    0      0.00%     71.39% # Type of FU issued
system.cpu.iq.FU_type_0::SimdAesMix                 0      0.00%     71.39% # Type of FU issued
system.cpu.iq.FU_type_0::SimdSha1Hash               0      0.00%     71.39% # Type of FU issued
system.cpu.iq.FU_type_0::SimdSha1Hash2              0      0.00%     71.39% # Type of FU issued
system.cpu.iq.FU_type_0::SimdSha256Hash             0      0.00%     71.39% # Type of FU issued
system.cpu.iq.FU_type_0::SimdSha256Hash2            0      0.00%     71.39% # Type of FU issued
system.cpu.iq.FU_type_0::SimdShaSigma2              0      0.00%     71.39% # Type of FU issued
system.cpu.iq.FU_type_0::SimdShaSigma3              0      0.00%     71.39% # Type of FU issued
system.cpu.iq.FU_type_0::MemRead              1681079     21.03%     92.41% # Type of FU issued
system.cpu.iq.FU_type_0::MemWrite              230868      2.89%     95.30% # Type of FU issued
system.cpu.iq.FU_type_0::FloatMemRead          270064      3.38%     98.68% # Type of FU issued
system.cpu.iq.FU_type_0::FloatMemWrite         105430      1.32%    100.00% # Type of FU issued
system.cpu.iq.FU_type_0::IprAccess                  0      0.00%    100.00% # Type of FU issued
system.cpu.iq.FU_type_0::InstPrefetch               0      0.00%    100.00% # Type of FU issued
system.cpu.iq.FU_type_0::total                7994079                       # Type of FU issued
system.cpu.iq.rate                           1.594680                       # Inst issue rate
system.cpu.iq.fu_busy_cnt                      489194                       # FU busy when requested
system.cpu.iq.fu_busy_rate                   0.061195                       # FU busy rate (busy events/executed inst)
system.cpu.iq.int_inst_queue_reads           19195652                       # Number of integer instruction queue reads
system.cpu.iq.int_inst_queue_writes           7010629                       # Number of integer instruction queue writes
system.cpu.iq.int_inst_queue_wakeup_accesses      6847661                       # Number of integer instruction queue wakeup accesses
system.cpu.iq.fp_inst_queue_reads             2282199                       # Number of floating instruction queue reads
system.cpu.iq.fp_inst_queue_writes            1159526                       # Number of floating instruction queue writes
system.cpu.iq.fp_inst_queue_wakeup_accesses      1132062                       # Number of floating instruction queue wakeup accesses
system.cpu.iq.vec_inst_queue_reads                  0                       # Number of vector instruction queue reads
system.cpu.iq.vec_inst_queue_writes                 0                       # Number of vector instruction queue writes
system.cpu.iq.vec_inst_queue_wakeup_accesses            0                       # Number of vector instruction queue wakeup accesses
system.cpu.iq.int_alu_accesses                7338720                       # Number of integer alu accesses
system.cpu.iq.fp_alu_accesses                 1144272                       # Number of floating point alu accesses
system.cpu.iq.vec_alu_accesses                      0                       # Number of vector alu accesses
system.cpu.iew.lsq.thread0.forwLoads           403178                       # Number of loads that had data forwarded from stores
system.cpu.iew.lsq.thread0.invAddrLoads             0                       # Number of loads ignored due to an invalid address
system.cpu.iew.lsq.thread0.squashedLoads        30025                       # Number of loads squashed
system.cpu.iew.lsq.thread0.ignoredResponses         1550                       # Number of memory responses ignored because the instruction is squashed
system.cpu.iew.lsq.thread0.memOrderViolation           30                       # Number of memory ordering violations
system.cpu.iew.lsq.thread0.squashedStores         2930                       # Number of stores squashed
system.cpu.iew.lsq.thread0.invAddrSwpfs             0                       # Number of software prefetches ignored due to an invalid address
system.cpu.iew.lsq.thread0.blockedLoads             0                       # Number of blocked loads due to partial load-store forwarding
system.cpu.iew.lsq.thread0.rescheduledLoads            1                       # Number of loads that were rescheduled
system.cpu.iew.lsq.thread0.cacheBlocked            16                       # Number of times an access to memory failed due to the cache being blocked
system.cpu.iew.iewIdleCycles                        0                       # Number of cycles IEW is idle
system.cpu.iew.iewSquashCycles                   4716                       # Number of cycles IEW is squashing
system.cpu.iew.iewBlockCycles                    6564                       # Number of cycles IEW is blocking
system.cpu.iew.iewUnblockCycles                  9852                       # Number of cycles IEW is unblocking
system.cpu.iew.iewDispatchedInsts             8055795                       # Number of instructions dispatched to IQ
system.cpu.iew.iewDispSquashedInsts              1316                       # Number of squashed instructions skipped by dispatch
system.cpu.iew.iewDispLoadInsts               1963419                       # Number of dispatched load instructions
system.cpu.iew.iewDispStoreInsts               337348                       # Number of dispatched store instructions
system.cpu.iew.iewDispNonSpecInsts                 46                       # Number of dispatched non-speculative instructions
system.cpu.iew.iewIQFullEvents                     22                       # Number of times the IQ has become full, causing a stall
system.cpu.iew.iewLSQFullEvents                  8785                       # Number of times the LSQ has become full, causing a stall
system.cpu.iew.memOrderViolationEvents             30                       # Number of memory order violations
system.cpu.iew.predictedTakenIncorrect           3982                       # Number of branches that were predicted taken incorrectly
system.cpu.iew.predictedNotTakenIncorrect          806                       # Number of branches that were predicted not taken incorrectly
system.cpu.iew.branchMispredicts                 4788                       # Number of branch mispredicts detected at execute
system.cpu.iew.iewExecutedInsts               7982789                       # Number of executed instructions
system.cpu.iew.iewExecLoadInsts               1947935                       # Number of load instructions executed
system.cpu.iew.iewExecSquashedInsts             11290                       # Number of squashed instructions skipped in execute
system.cpu.iew.exec_swp                             0                       # number of swp insts executed
system.cpu.iew.exec_nop                             0                       # number of nop insts executed
system.cpu.iew.exec_refs                      2283863                       # number of memory reference insts executed
system.cpu.iew.exec_branches                   304644                       # Number of branches executed
system.cpu.iew.exec_stores                     335928                       # Number of stores executed
system.cpu.iew.exec_rate                     1.592428                       # Inst execution rate
system.cpu.iew.wb_sent                        7980677                       # cumulative count of insts sent to commit
system.cpu.iew.wb_count                       7979723                       # cumulative count of insts written-back
system.cpu.iew.wb_producers                   6170888                       # num instructions producing a value
system.cpu.iew.wb_consumers                   9794221                       # num instructions consuming a value
system.cpu.iew.wb_rate                       1.591816                       # insts written-back per cycle
system.cpu.iew.wb_fanout                     0.630054                       # average fanout of values written-back
system.cpu.commit.commitSquashedInsts          105693                       # The number of squashed insts skipped by commit
system.cpu.commit.commitNonSpecStalls               9                       # The number of times commit has been forced to stall to communicate backwards
system.cpu.commit.branchMispredicts              4686                       # The number of times a branch was mispredicted
system.cpu.commit.committed_per_cycle::samples      4980839                       # Number of insts commited each cycle
system.cpu.commit.committed_per_cycle::mean     1.594403                       # Number of insts commited each cycle
system.cpu.commit.committed_per_cycle::stdev     0.769382                       # Number of insts commited each cycle
system.cpu.commit.committed_per_cycle::underflows            0      0.00%      0.00% # Number of insts commited each cycle
system.cpu.commit.committed_per_cycle::0       873791     17.54%     17.54% # Number of insts commited each cycle
system.cpu.commit.committed_per_cycle::1       272632      5.47%     23.02% # Number of insts commited each cycle
system.cpu.commit.committed_per_cycle::2      3834416     76.98%    100.00% # Number of insts commited each cycle
system.cpu.commit.committed_per_cycle::overflows            0      0.00%    100.00% # Number of insts commited each cycle
system.cpu.commit.committed_per_cycle::min_value            0                       # Number of insts commited each cycle
system.cpu.commit.committed_per_cycle::max_value            2                       # Number of insts commited each cycle
system.cpu.commit.committed_per_cycle::total      4980839                       # Number of insts commited each cycle
system.cpu.commit.committedInsts              5178095                       # Number of instructions committed
system.cpu.commit.committedOps                7941464                       # Number of ops (including micro ops) committed
system.cpu.commit.swp_count                         0                       # Number of s/w prefetches committed
system.cpu.commit.refs                        2267812                       # Number of memory references committed
system.cpu.commit.loads                       1933394                       # Number of loads committed
system.cpu.commit.membars                           0                       # Number of memory barriers committed
system.cpu.commit.branches                     304020                       # Number of branches committed
system.cpu.commit.vec_insts                         0                       # Number of committed Vector instructions.
system.cpu.commit.fp_insts                    1126946                       # Number of committed floating point instructions.
system.cpu.commit.int_insts                   7201934                       # Number of committed integer instructions.
system.cpu.commit.function_calls                36123                       # Number of function calls committed.
system.cpu.commit.op_class_0::No_OpClass          106      0.00%      0.00% # Class of committed instruction
system.cpu.commit.op_class_0::IntAlu          4523513     56.96%     56.96% # Class of committed instruction
system.cpu.commit.op_class_0::IntMult          399028      5.02%     61.99% # Class of committed instruction
system.cpu.commit.op_class_0::IntDiv               43      0.00%     61.99% # Class of committed instruction
system.cpu.commit.op_class_0::FloatAdd         540010      6.80%     68.79% # Class of committed instruction
system.cpu.commit.op_class_0::FloatCmp              0      0.00%     68.79% # Class of committed instruction
system.cpu.commit.op_class_0::FloatCvt              0      0.00%     68.79% # Class of committed instruction
system.cpu.commit.op_class_0::FloatMult             0      0.00%     68.79% # Class of committed instruction
system.cpu.commit.op_class_0::FloatMultAcc            0      0.00%     68.79% # Class of committed instruction
system.cpu.commit.op_class_0::FloatDiv              0      0.00%     68.79% # Class of committed instruction
system.cpu.commit.op_class_0::FloatMisc             0      0.00%     68.79% # Class of committed instruction
system.cpu.commit.op_class_0::FloatSqrt             0      0.00%     68.79% # Class of committed instruction
system.cpu.commit.op_class_0::SimdAdd             374      0.00%     68.79% # Class of committed instruction
system.cpu.commit.op_class_0::SimdAddAcc            0      0.00%     68.79% # Class of committed instruction
system.cpu.commit.op_class_0::SimdAlu            6070      0.08%     68.87% # Class of committed instruction
system.cpu.commit.op_class_0::SimdCmp               0      0.00%     68.87% # Class of committed instruction
system.cpu.commit.op_class_0::SimdCvt             108      0.00%     68.87% # Class of committed instruction
system.cpu.commit.op_class_0::SimdMisc          12214      0.15%     69.02% # Class of committed instruction
system.cpu.commit.op_class_0::SimdMult              0      0.00%     69.02% # Class of committed instruction
system.cpu.commit.op_class_0::SimdMultAcc            0      0.00%     69.02% # Class of committed instruction
system.cpu.commit.op_class_0::SimdShift           186      0.00%     69.03% # Class of committed instruction
system.cpu.commit.op_class_0::SimdShiftAcc            0      0.00%     69.03% # Class of committed instruction
system.cpu.commit.op_class_0::SimdSqrt              0      0.00%     69.03% # Class of committed instruction
system.cpu.commit.op_class_0::SimdFloatAdd        90000      1.13%     70.16% # Class of committed instruction
system.cpu.commit.op_class_0::SimdFloatAlu            0      0.00%     70.16% # Class of committed instruction
system.cpu.commit.op_class_0::SimdFloatCmp            0      0.00%     70.16% # Class of committed instruction
system.cpu.commit.op_class_0::SimdFloatCvt        12000      0.15%     70.31% # Class of committed instruction
system.cpu.commit.op_class_0::SimdFloatDiv            0      0.00%     70.31% # Class of committed instruction
system.cpu.commit.op_class_0::SimdFloatMisc            0      0.00%     70.31% # Class of committed instruction
system.cpu.commit.op_class_0::SimdFloatMult        90000      1.13%     71.44% # Class of committed instruction
system.cpu.commit.op_class_0::SimdFloatMultAcc            0      0.00%     71.44% # Class of committed instruction
system.cpu.commit.op_class_0::SimdFloatSqrt            0      0.00%     71.44% # Class of committed instruction
system.cpu.commit.op_class_0::SimdAes               0      0.00%     71.44% # Class of committed instruction
system.cpu.commit.op_class_0::SimdAesMix            0      0.00%     71.44% # Class of committed instruction
system.cpu.commit.op_class_0::SimdSha1Hash            0      0.00%     71.44% # Class of committed instruction
system.cpu.commit.op_class_0::SimdSha1Hash2            0      0.00%     71.44% # Class of committed instruction
system.cpu.commit.op_class_0::SimdSha256Hash            0      0.00%     71.44% # Class of committed instruction
system.cpu.commit.op_class_0::SimdSha256Hash2            0      0.00%     71.44% # Class of committed instruction
system.cpu.commit.op_class_0::SimdShaSigma2            0      0.00%     71.44% # Class of committed instruction
system.cpu.commit.op_class_0::SimdShaSigma3            0      0.00%     71.44% # Class of committed instruction
system.cpu.commit.op_class_0::MemRead         1663338     20.94%     92.39% # Class of committed instruction
system.cpu.commit.op_class_0::MemWrite         229002      2.88%     95.27% # Class of committed instruction
system.cpu.commit.op_class_0::FloatMemRead       270056      3.40%     98.67% # Class of committed instruction
system.cpu.commit.op_class_0::FloatMemWrite       105416      1.33%    100.00% # Class of committed instruction
system.cpu.commit.op_class_0::IprAccess             0      0.00%    100.00% # Class of committed instruction
system.cpu.commit.op_class_0::InstPrefetch            0      0.00%    100.00% # Class of committed instruction
system.cpu.commit.op_class_0::total           7941464                       # Class of committed instruction
system.cpu.commit.bw_lim_events               3834416                       # number cycles where commit BW limit reached
system.cpu.rob.rob_reads                      9193580                       # The number of ROB reads
system.cpu.rob.rob_writes                    16102802                       # The number of ROB writes
system.cpu.timesIdled                             267                       # Number of times that the entire CPU went into an idle state and unscheduled itself
system.cpu.idleCycles                           23641                       # Total number of cycles that the CPU has spent unscheduled due to idling
system.cpu.committedInsts                     5178095                       # Number of Instructions Simulated
system.cpu.committedOps                       7941464                       # Number of Ops (including micro ops) Simulated
system.cpu.cpi                               0.968110                       # CPI: Cycles Per Instruction
system.cpu.cpi_total                         0.968110                       # CPI: Total CPI of All Threads
system.cpu.ipc                               1.032940                       # IPC: Instructions Per Cycle
system.cpu.ipc_total                         1.032940                       # IPC: Total IPC of All Threads
system.cpu.int_regfile_reads                 12622598                       # number of integer regfile reads
system.cpu.int_regfile_writes                 6712219                       # number of integer regfile writes
system.cpu.fp_regfile_reads                    696832                       # number of floating regfile reads
system.cpu.fp_regfile_writes                  1026704                       # number of floating regfile writes
system.cpu.cc_regfile_reads                   1765247                       # number of cc regfile reads
system.cpu.cc_regfile_writes                  2911877                       # number of cc regfile writes
system.cpu.misc_regfile_reads                 2918485                       # number of misc regfile reads
system.cpu.dcache.tags.pwrStateResidencyTicks::UNDEFINED   2506483000                       # Cumulative time (in ticks) in various power states
system.cpu.dcache.tags.tagsinuse           247.120418                       # Cycle average of tags in use
system.cpu.dcache.tags.total_refs             1875507                       # Total number of references to valid blocks.
system.cpu.dcache.tags.sampled_refs             11912                       # Sample count of references to valid blocks.
system.cpu.dcache.tags.avg_refs            157.446860                       # Average number of references to valid blocks.
system.cpu.dcache.tags.warmup_cycle            170000                       # Cycle when the warmup percentage was hit.
system.cpu.dcache.tags.occ_blocks::.cpu.data   247.120418                       # Average occupied blocks per requestor
system.cpu.dcache.tags.occ_percent::.cpu.data     0.965314                       # Average percentage of cache occupancy
system.cpu.dcache.tags.occ_percent::total     0.965314                       # Average percentage of cache occupancy
system.cpu.dcache.tags.occ_task_id_blocks::1024          256                       # Occupied blocks per task id
system.cpu.dcache.tags.age_task_id_blocks_1024::0           48                       # Occupied blocks per task id
system.cpu.dcache.tags.age_task_id_blocks_1024::1          188                       # Occupied blocks per task id
system.cpu.dcache.tags.age_task_id_blocks_1024::2           20                       # Occupied blocks per task id
system.cpu.dcache.tags.occ_task_id_percent::1024            1                       # Percentage of cache occupancy per task id
system.cpu.dcache.tags.tag_accesses           1891003                       # Number of tag accesses
system.cpu.dcache.tags.data_accesses          1891003                       # Number of data accesses
system.cpu.dcache.pwrStateResidencyTicks::UNDEFINED   2506483000                       # Cumulative time (in ticks) in various power states
system.cpu.dcache.ReadReq_hits::.cpu.data      1532331                       # number of ReadReq hits
system.cpu.dcache.ReadReq_hits::total         1532331                       # number of ReadReq hits
system.cpu.dcache.WriteReq_hits::.cpu.data       331264                       # number of WriteReq hits
system.cpu.dcache.WriteReq_hits::total         331264                       # number of WriteReq hits
system.cpu.dcache.demand_hits::.cpu.data      1863595                       # number of demand (read+write) hits
system.cpu.dcache.demand_hits::total          1863595                       # number of demand (read+write) hits
system.cpu.dcache.overall_hits::.cpu.data      1863595                       # number of overall hits
system.cpu.dcache.overall_hits::total         1863595                       # number of overall hits
system.cpu.dcache.ReadReq_misses::.cpu.data        12342                       # number of ReadReq misses
system.cpu.dcache.ReadReq_misses::total         12342                       # number of ReadReq misses
system.cpu.dcache.WriteReq_misses::.cpu.data         3154                       # number of WriteReq misses
system.cpu.dcache.WriteReq_misses::total         3154                       # number of WriteReq misses
system.cpu.dcache.demand_misses::.cpu.data        15496                       # number of demand (read+write) misses
system.cpu.dcache.demand_misses::total          15496                       # number of demand (read+write) misses
system.cpu.dcache.overall_misses::.cpu.data        15496                       # number of overall misses
system.cpu.dcache.overall_misses::total         15496                       # number of overall misses
system.cpu.dcache.ReadReq_miss_latency::.cpu.data    209819500                       # number of ReadReq miss cycles
system.cpu.dcache.ReadReq_miss_latency::total    209819500                       # number of ReadReq miss cycles
system.cpu.dcache.WriteReq_miss_latency::.cpu.data    150990500                       # number of WriteReq miss cycles
system.cpu.dcache.WriteReq_miss_latency::total    150990500                       # number of WriteReq miss cycles
system.cpu.dcache.demand_miss_latency::.cpu.data    360810000                       # number of demand (read+write) miss cycles
system.cpu.dcache.demand_miss_latency::total    360810000                       # number of demand (read+write) miss cycles
system.cpu.dcache.overall_miss_latency::.cpu.data    360810000                       # number of overall miss cycles
system.cpu.dcache.overall_miss_latency::total    360810000                       # number of overall miss cycles
system.cpu.dcache.ReadReq_accesses::.cpu.data      1544673                       # number of ReadReq accesses(hits+misses)
system.cpu.dcache.ReadReq_accesses::total      1544673                       # number of ReadReq accesses(hits+misses)
system.cpu.dcache.WriteReq_accesses::.cpu.data       334418                       # number of WriteReq accesses(hits+misses)
system.cpu.dcache.WriteReq_accesses::total       334418                       # number of WriteReq accesses(hits+misses)
system.cpu.dcache.demand_accesses::.cpu.data      1879091                       # number of demand (read+write) accesses
system.cpu.dcache.demand_accesses::total      1879091                       # number of demand (read+write) accesses
system.cpu.dcache.overall_accesses::.cpu.data      1879091                       # number of overall (read+write) accesses
system.cpu.dcache.overall_accesses::total      1879091                       # number of overall (read+write) accesses
system.cpu.dcache.ReadReq_miss_rate::.cpu.data     0.007990                       # miss rate for ReadReq accesses
system.cpu.dcache.ReadReq_miss_rate::total     0.007990                       # miss rate for ReadReq accesses
system.cpu.dcache.WriteReq_miss_rate::.cpu.data     0.009431                       # miss rate for WriteReq accesses
system.cpu.dcache.WriteReq_miss_rate::total     0.009431                       # miss rate for WriteReq accesses
system.cpu.dcache.demand_miss_rate::.cpu.data     0.008247                       # miss rate for demand accesses
system.cpu.dcache.demand_miss_rate::total     0.008247                       # miss rate for demand accesses
system.cpu.dcache.overall_miss_rate::.cpu.data     0.008247                       # miss rate for overall accesses
system.cpu.dcache.overall_miss_rate::total     0.008247                       # miss rate for overall accesses
system.cpu.dcache.ReadReq_avg_miss_latency::.cpu.data 17000.445633                       # average ReadReq miss latency
system.cpu.dcache.ReadReq_avg_miss_latency::total 17000.445633                       # average ReadReq miss latency
system.cpu.dcache.WriteReq_avg_miss_latency::.cpu.data 47872.701332                       # average WriteReq miss latency
system.cpu.dcache.WriteReq_avg_miss_latency::total 47872.701332                       # average WriteReq miss latency
system.cpu.dcache.demand_avg_miss_latency::.cpu.data 23284.073309                       # average overall miss latency
[...]
system.l3bus.snoop_fanout::min_value                0                       # Request fanout histogram
system.l3bus.snoop_fanout::max_value                0                       # Request fanout histogram
system.l3bus.snoop_fanout::total                 1590                       # Request fanout histogram
system.l3bus.reqLayer0.occupancy               795000                       # Layer occupancy (ticks)
system.l3bus.reqLayer0.utilization                0.0                       # Layer utilization (%)
system.l3bus.respLayer0.occupancy             3975000                       # Layer occupancy (ticks)
system.l3bus.respLayer0.utilization               0.2                       # Layer utilization (%)
system.l3cache.tags.pwrStateResidencyTicks::UNDEFINED   2506483000                       # Cumulative time (in ticks) in various power states
system.l3cache.tags.tagsinuse             1316.478496                       # Cycle average of tags in use
system.l3cache.tags.total_refs                   1590                       # Total number of references to valid blocks.
system.l3cache.tags.sampled_refs                 1590                       # Sample count of references to valid blocks.
system.l3cache.tags.avg_refs                        1                       # Average number of references to valid blocks.
system.l3cache.tags.warmup_cycle                76000                       # Cycle when the warmup percentage was hit.
system.l3cache.tags.occ_blocks::.cpu.inst   393.183197                       # Average occupied blocks per requestor
system.l3cache.tags.occ_blocks::.cpu.data   923.295299                       # Average occupied blocks per requestor
system.l3cache.tags.occ_percent::.cpu.inst     0.011999                       # Average percentage of cache occupancy
system.l3cache.tags.occ_percent::.cpu.data     0.028177                       # Average percentage of cache occupancy
system.l3cache.tags.occ_percent::total       0.040176                       # Average percentage of cache occupancy
system.l3cache.tags.occ_task_id_blocks::1024         1590                       # Occupied blocks per task id
system.l3cache.tags.age_task_id_blocks_1024::0           59                       # Occupied blocks per task id
system.l3cache.tags.age_task_id_blocks_1024::1            9                       # Occupied blocks per task id
system.l3cache.tags.age_task_id_blocks_1024::2           88                       # Occupied blocks per task id
system.l3cache.tags.age_task_id_blocks_1024::3         1434                       # Occupied blocks per task id
system.l3cache.tags.occ_task_id_percent::1024     0.048523                       # Percentage of cache occupancy per task id
system.l3cache.tags.tag_accesses                27030                       # Number of tag accesses
system.l3cache.tags.data_accesses               27030                       # Number of data accesses
system.l3cache.pwrStateResidencyTicks::UNDEFINED   2506483000                       # Cumulative time (in ticks) in various power states
system.l3cache.ReadExReq_misses::.cpu.data         1037                       # number of ReadExReq misses
system.l3cache.ReadExReq_misses::total           1037                       # number of ReadExReq misses
system.l3cache.ReadSharedReq_misses::.cpu.inst          440                       # number of ReadSharedReq misses
system.l3cache.ReadSharedReq_misses::.cpu.data          113                       # number of ReadSharedReq misses
system.l3cache.ReadSharedReq_misses::total          553                       # number of ReadSharedReq misses
system.l3cache.demand_misses::.cpu.inst           440                       # number of demand (read+write) misses
system.l3cache.demand_misses::.cpu.data          1150                       # number of demand (read+write) misses
system.l3cache.demand_misses::total              1590                       # number of demand (read+write) misses
system.l3cache.overall_misses::.cpu.inst          440                       # number of overall misses
system.l3cache.overall_misses::.cpu.data         1150                       # number of overall misses
system.l3cache.overall_misses::total             1590                       # number of overall misses
system.l3cache.ReadExReq_miss_latency::.cpu.data     98532000                       # number of ReadExReq miss cycles
system.l3cache.ReadExReq_miss_latency::total     98532000                       # number of ReadExReq miss cycles
system.l3cache.ReadSharedReq_miss_latency::.cpu.inst     31967500                       # number of ReadSharedReq miss cycles
system.l3cache.ReadSharedReq_miss_latency::.cpu.data      8999500                       # number of ReadSharedReq miss cycles
system.l3cache.ReadSharedReq_miss_latency::total     40967000                       # number of ReadSharedReq miss cycles
system.l3cache.demand_miss_latency::.cpu.inst     31967500                       # number of demand (read+write) miss cycles
system.l3cache.demand_miss_latency::.cpu.data    107531500                       # number of demand (read+write) miss cycles
system.l3cache.demand_miss_latency::total    139499000                       # number of demand (read+write) miss cycles
system.l3cache.overall_miss_latency::.cpu.inst     31967500                       # number of overall miss cycles
system.l3cache.overall_miss_latency::.cpu.data    107531500                       # number of overall miss cycles
system.l3cache.overall_miss_latency::total    139499000                       # number of overall miss cycles
system.l3cache.ReadExReq_accesses::.cpu.data         1037                       # number of ReadExReq accesses(hits+misses)
system.l3cache.ReadExReq_accesses::total         1037                       # number of ReadExReq accesses(hits+misses)
system.l3cache.ReadSharedReq_accesses::.cpu.inst          440                       # number of ReadSharedReq accesses(hits+misses)
system.l3cache.ReadSharedReq_accesses::.cpu.data          113                       # number of ReadSharedReq accesses(hits+misses)
system.l3cache.ReadSharedReq_accesses::total          553                       # number of ReadSharedReq accesses(hits+misses)
system.l3cache.demand_accesses::.cpu.inst          440                       # number of demand (read+write) accesses
system.l3cache.demand_accesses::.cpu.data         1150                       # number of demand (read+write) accesses
system.l3cache.demand_accesses::total            1590                       # number of demand (read+write) accesses
system.l3cache.overall_accesses::.cpu.inst          440                       # number of overall (read+write) accesses
system.l3cache.overall_accesses::.cpu.data         1150                       # number of overall (read+write) accesses
system.l3cache.overall_accesses::total           1590                       # number of overall (read+write) accesses
system.l3cache.ReadExReq_miss_rate::.cpu.data            1                       # miss rate for ReadExReq accesses
system.l3cache.ReadExReq_miss_rate::total            1                       # miss rate for ReadExReq accesses
system.l3cache.ReadSharedReq_miss_rate::.cpu.inst            1                       # miss rate for ReadSharedReq accesses
system.l3cache.ReadSharedReq_miss_rate::.cpu.data            1                       # miss rate for ReadSharedReq accesses
system.l3cache.ReadSharedReq_miss_rate::total            1                       # miss rate for ReadSharedReq accesses
system.l3cache.demand_miss_rate::.cpu.inst            1                       # miss rate for demand accesses
system.l3cache.demand_miss_rate::.cpu.data            1                       # miss rate for demand accesses
system.l3cache.demand_miss_rate::total              1                       # miss rate for demand accesses
system.l3cache.overall_miss_rate::.cpu.inst            1                       # miss rate for overall accesses
system.l3cache.overall_miss_rate::.cpu.data            1                       # miss rate for overall accesses
system.l3cache.overall_miss_rate::total             1                       # miss rate for overall accesses
system.l3cache.ReadExReq_avg_miss_latency::.cpu.data 95016.393443                       # average ReadExReq miss latency
system.l3cache.ReadExReq_avg_miss_latency::total 95016.393443                       # average ReadExReq miss latency
system.l3cache.ReadSharedReq_avg_miss_latency::.cpu.inst 72653.409091                       # average ReadSharedReq miss latency
system.l3cache.ReadSharedReq_avg_miss_latency::.cpu.data 79641.592920                       # average ReadSharedReq miss latency
system.l3cache.ReadSharedReq_avg_miss_latency::total 74081.374322                       # average ReadSharedReq miss latency
system.l3cache.demand_avg_miss_latency::.cpu.inst 72653.409091                       # average overall miss latency
system.l3cache.demand_avg_miss_latency::.cpu.data 93505.652174                       # average overall miss latency
system.l3cache.demand_avg_miss_latency::total 87735.220126                       # average overall miss latency
system.l3cache.overall_avg_miss_latency::.cpu.inst 72653.409091                       # average overall miss latency
system.l3cache.overall_avg_miss_latency::.cpu.data 93505.652174                       # average overall miss latency
system.l3cache.overall_avg_miss_latency::total 87735.220126                       # average overall miss latency
system.l3cache.blocked_cycles::no_mshrs             0                       # number of cycles access was blocked
system.l3cache.blocked_cycles::no_targets            0                       # number of cycles access was blocked
system.l3cache.blocked::no_mshrs                    0                       # number of cycles access was blocked
system.l3cache.blocked::no_targets                  0                       # number of cycles access was blocked
system.l3cache.avg_blocked_cycles::no_mshrs          nan                       # average number of cycles each access was blocked
system.l3cache.avg_blocked_cycles::no_targets          nan                       # average number of cycles each access was blocked
system.l3cache.ReadExReq_mshr_misses::.cpu.data         1037                       # number of ReadExReq MSHR misses
system.l3cache.ReadExReq_mshr_misses::total         1037                       # number of ReadExReq MSHR misses
system.l3cache.ReadSharedReq_mshr_misses::.cpu.inst          440                       # number of ReadSharedReq MSHR misses
system.l3cache.ReadSharedReq_mshr_misses::.cpu.data          113                       # number of ReadSharedReq MSHR misses
system.l3cache.ReadSharedReq_mshr_misses::total          553                       # number of ReadSharedReq MSHR misses
system.l3cache.demand_mshr_misses::.cpu.inst          440                       # number of demand (read+write) MSHR misses
system.l3cache.demand_mshr_misses::.cpu.data         1150                       # number of demand (read+write) MSHR misses
system.l3cache.demand_mshr_misses::total         1590                       # number of demand (read+write) MSHR misses
system.l3cache.overall_mshr_misses::.cpu.inst          440                       # number of overall MSHR misses
system.l3cache.overall_mshr_misses::.cpu.data         1150                       # number of overall MSHR misses
system.l3cache.overall_mshr_misses::total         1590                       # number of overall MSHR misses
system.l3cache.ReadExReq_mshr_miss_latency::.cpu.data     96458000                       # number of ReadExReq MSHR miss cycles
system.l3cache.ReadExReq_mshr_miss_latency::total     96458000                       # number of ReadExReq MSHR miss cycles
system.l3cache.ReadSharedReq_mshr_miss_latency::.cpu.inst     31087500                       # number of ReadSharedReq MSHR miss cycles
system.l3cache.ReadSharedReq_mshr_miss_latency::.cpu.data      8773500                       # number of ReadSharedReq MSHR miss cycles
system.l3cache.ReadSharedReq_mshr_miss_latency::total     39861000                       # number of ReadSharedReq MSHR miss cycles
system.l3cache.demand_mshr_miss_latency::.cpu.inst     31087500                       # number of demand (read+write) MSHR miss cycles
system.l3cache.demand_mshr_miss_latency::.cpu.data    105231500                       # number of demand (read+write) MSHR miss cycles
system.l3cache.demand_mshr_miss_latency::total    136319000                       # number of demand (read+write) MSHR miss cycles
system.l3cache.overall_mshr_miss_latency::.cpu.inst     31087500                       # number of overall MSHR miss cycles
system.l3cache.overall_mshr_miss_latency::.cpu.data    105231500                       # number of overall MSHR miss cycles
system.l3cache.overall_mshr_miss_latency::total    136319000                       # number of overall MSHR miss cycles
system.l3cache.ReadExReq_mshr_miss_rate::.cpu.data            1                       # mshr miss rate for ReadExReq accesses
system.l3cache.ReadExReq_mshr_miss_rate::total            1                       # mshr miss rate for ReadExReq accesses
system.l3cache.ReadSharedReq_mshr_miss_rate::.cpu.inst            1                       # mshr miss rate for ReadSharedReq accesses
system.l3cache.ReadSharedReq_mshr_miss_rate::.cpu.data            1                       # mshr miss rate for ReadSharedReq accesses
system.l3cache.ReadSharedReq_mshr_miss_rate::total            1                       # mshr miss rate for ReadSharedReq accesses
system.l3cache.demand_mshr_miss_rate::.cpu.inst            1                       # mshr miss rate for demand accesses
system.l3cache.demand_mshr_miss_rate::.cpu.data            1                       # mshr miss rate for demand accesses
system.l3cache.demand_mshr_miss_rate::total            1                       # mshr miss rate for demand accesses
system.l3cache.overall_mshr_miss_rate::.cpu.inst            1                       # mshr miss rate for overall accesses
system.l3cache.overall_mshr_miss_rate::.cpu.data            1                       # mshr miss rate for overall accesses
system.l3cache.overall_mshr_miss_rate::total            1                       # mshr miss rate for overall accesses
system.l3cache.ReadExReq_avg_mshr_miss_latency::.cpu.data 93016.393443                       # average ReadExReq mshr miss latency
system.l3cache.ReadExReq_avg_mshr_miss_latency::total 93016.393443                       # average ReadExReq mshr miss latency
system.l3cache.ReadSharedReq_avg_mshr_miss_latency::.cpu.inst 70653.409091                       # average ReadSharedReq mshr miss latency
system.l3cache.ReadSharedReq_avg_mshr_miss_latency::.cpu.data 77641.592920                       # average ReadSharedReq mshr miss latency
system.l3cache.ReadSharedReq_avg_mshr_miss_latency::total 72081.374322                       # average ReadSharedReq mshr miss latency
system.l3cache.demand_avg_mshr_miss_latency::.cpu.inst 70653.409091                       # average overall mshr miss latency
system.l3cache.demand_avg_mshr_miss_latency::.cpu.data 91505.652174                       # average overall mshr miss latency
system.l3cache.demand_avg_mshr_miss_latency::total 85735.220126                       # average overall mshr miss latency
system.l3cache.overall_avg_mshr_miss_latency::.cpu.inst 70653.409091                       # average overall mshr miss latency
system.l3cache.overall_avg_mshr_miss_latency::.cpu.data 91505.652174                       # average overall mshr miss latency
system.l3cache.overall_avg_mshr_miss_latency::total 85735.220126                       # average overall mshr miss latency
system.l3cache.replacements                         0                       # number of replacements
system.membus.snoop_filter.tot_requests          1590                       # Total number of requests made to the snoop filter.
system.membus.snoop_filter.hit_single_requests            0                       # Number of requests hitting in the snoop filter with a single holder of the requested data.
system.membus.snoop_filter.hit_multi_requests            0                       # Number of requests hitting in the snoop filter with multiple (>1) holders of the requested data.
system.membus.snoop_filter.tot_snoops               0                       # Total number of snoops made to the snoop filter.
system.membus.snoop_filter.hit_single_snoops            0                       # Number of snoops hitting in the snoop filter with a single holder of the requested data.
system.membus.snoop_filter.hit_multi_snoops            0                       # Number of snoops hitting in the snoop filter with multiple (>1) holders of the requested data.
system.membus.pwrStateResidencyTicks::UNDEFINED   2506483000                       # Cumulative time (in ticks) in various power states
system.membus.trans_dist::ReadResp                553                       # Transaction distribution
system.membus.trans_dist::ReadExReq              1037                       # Transaction distribution
system.membus.trans_dist::ReadExResp             1037                       # Transaction distribution
system.membus.trans_dist::ReadSharedReq           553                       # Transaction distribution
system.membus.pkt_count_system.l3cache.mem_side::system.mem_ctrl.port         3180                       # Packet count per connected master and slave (bytes)
system.membus.pkt_count_system.l3cache.mem_side::total         3180                       # Packet count per connected master and slave (bytes)
system.membus.pkt_count::total                   3180                       # Packet count per connected master and slave (bytes)
system.membus.pkt_size_system.l3cache.mem_side::system.mem_ctrl.port       101760                       # Cumulative packet size per connected master and slave (bytes)
system.membus.pkt_size_system.l3cache.mem_side::total       101760                       # Cumulative packet size per connected master and slave (bytes)
system.membus.pkt_size::total                  101760                       # Cumulative packet size per connected master and slave (bytes)
system.membus.snoops                                0                       # Total snoops (count)
system.membus.snoopTraffic                          0                       # Total snoop traffic (bytes)
system.membus.snoop_fanout::samples              1590                       # Request fanout histogram
system.membus.snoop_fanout::mean                    0                       # Request fanout histogram
system.membus.snoop_fanout::stdev                   0                       # Request fanout histogram
system.membus.snoop_fanout::underflows              0      0.00%      0.00% # Request fanout histogram
system.membus.snoop_fanout::0                    1590    100.00%    100.00% # Request fanout histogram
system.membus.snoop_fanout::1                       0      0.00%    100.00% # Request fanout histogram
system.membus.snoop_fanout::overflows               0      0.00%    100.00% # Request fanout histogram
system.membus.snoop_fanout::min_value               0                       # Request fanout histogram
system.membus.snoop_fanout::max_value               0                       # Request fanout histogram
system.membus.snoop_fanout::total                1590                       # Request fanout histogram
system.membus.reqLayer0.occupancy              795000                       # Layer occupancy (ticks)
system.membus.reqLayer0.utilization               0.0                       # Layer utilization (%)
system.membus.respLayer0.occupancy            4296750                       # Layer occupancy (ticks)
system.membus.respLayer0.utilization              0.2                       # Layer utilization (%)

---------- End Simulation Statistics   ----------
