
---------- Begin Simulation Statistics ----------
sim_seconds                                  0.000697                       # Number of seconds simulated
sim_ticks                                   696531500                       # Number of ticks simulated
final_tick                                  696531500                       # Number of ticks from beginning of simulation (restored from checkpoints and never reset)
sim_freq                                 1000000000000                       # Frequency of simulated ticks
host_inst_rate                                 230980                       # Simulator instruction rate (inst/s)
host_op_rate                                   345054                       # Simulator op (including micro ops) rate (op/s)
host_tick_rate                              113867188                       # Simulator tick rate (ticks/s)
host_mem_usage                                 654336                       # Number of bytes of host memory used
host_seconds                                     6.12                       # Real time elapsed on the host
sim_insts                                     1412913                       # Number of instructions simulated
sim_ops                                       2110710                       # Number of ops (including micro ops) simulated
system.clk_domain.voltage_domain.voltage            1                       # Voltage in Volts
system.clk_domain.clock                           500                       # Clock period in ticks
system.mem_ctrl.pwrStateResidencyTicks::UNDEFINED    696531500                       # Cumulative time (in ticks) in various power states
system.mem_ctrl.bytes_read::.cpu.inst           28160                       # Number of bytes read from this memory
system.mem_ctrl.bytes_read::.cpu.data           24320                       # Number of bytes read from this memory
system.mem_ctrl.bytes_read::total               52480                       # Number of bytes read from this memory
system.mem_ctrl.bytes_inst_read::.cpu.inst        28160                       # Number of instructions bytes read from this memory
system.mem_ctrl.bytes_inst_read::total          28160                       # Number of instructions bytes read from this memory
system.mem_ctrl.num_reads::.cpu.inst              440                       # Number of read requests responded to by this memory
system.mem_ctrl.num_reads::.cpu.data              380                       # Number of read requests responded to by this memory
system.mem_ctrl.num_reads::total                  820                       # Number of read requests responded to by this memory
system.mem_ctrl.bw_read::.cpu.inst           40428897                       # Total read bandwidth from this memory (bytes/s)
system.mem_ctrl.bw_read::.cpu.data           34915865                       # Total read bandwidth from this memory (bytes/s)
system.mem_ctrl.bw_read::total               75344762                       # Total read bandwidth from this memory (bytes/s)
system.mem_ctrl.bw_inst_read::.cpu.inst      40428897                       # Instruction read bandwidth from this memory (bytes/s)
system.mem_ctrl.bw_inst_read::total          40428897                       # Instruction read bandwidth from this memory (bytes/s)
system.mem_ctrl.bw_total::.cpu.inst          40428897                       # Total bandwidth to/from this memory (bytes/s)
system.mem_ctrl.bw_total::.cpu.data          34915865                       # Total bandwidth to/from this memory (bytes/s)
system.mem_ctrl.bw_total::total              75344762                       # Total bandwidth to/from this memory (bytes/s)
system.mem_ctrl.avgPriority_.cpu.inst::samples       440.00                       # Average QoS priority value for accepted requests
system.mem_ctrl.avgPriority_.cpu.data::samples       380.00                       # Average QoS priority value for accepted requests
system.mem_ctrl.priorityMinLatency       0.000000018750                       # per QoS priority minimum request to response latency (s)
system.mem_ctrl.priorityMaxLatency       0.000001099750                       # per QoS priority maximum request to response latency (s)
system.mem_ctrl.numReadWriteTurnArounds             0                       # Number of turnarounds from READ to WRITE
system.mem_ctrl.numWriteReadTurnArounds             0                       # Number of turnarounds from WRITE to READ
system.mem_ctrl.numStayReadState                 1718                       # Number of times bus staying in READ state
system.mem_ctrl.numStayWriteState                   0                       # Number of times bus staying in WRITE state
system.mem_ctrl.readReqs                          820                       # Number of read requests accepted
system.mem_ctrl.writeReqs                           0                       # Number of write requests accepted
system.mem_ctrl.readBursts                        820                       # Number of DRAM read bursts, including those serviced by the write queue
system.mem_ctrl.writeBursts                         0                       # Number of DRAM write bursts, including those merged in the write queue
system.mem_ctrl.bytesReadDRAM                   52480                       # Total number of bytes read from DRAM
system.mem_ctrl.bytesReadWrQ                        0                       # Total number of bytes read from write queue
system.mem_ctrl.bytesWritten                        0                       # Total number of bytes written to DRAM
system.mem_ctrl.bytesReadSys                    52480                       # Total read bytes from the system interface side
system.mem_ctrl.bytesWrittenSys                     0                       # Total written bytes from the system interface side
system.mem_ctrl.servicedByWrQ                       0                       # Number of DRAM read bursts serviced by the write queue
system.mem_ctrl.mergedWrBursts                      0                       # Number of DRAM write bursts merged with an existing one
system.mem_ctrl.neitherReadNorWriteReqs             0                       # Number of requests that are neither read nor write
system.mem_ctrl.perBankRdBursts::0                145                       # Per bank write bursts
system.mem_ctrl.perBankRdBursts::1                 81                       # Per bank write bursts
system.mem_ctrl.perBankRdBursts::2                 82                       # Per bank write bursts
system.mem_ctrl.perBankRdBursts::3                  9                       # Per bank write bursts
system.mem_ctrl.perBankRdBursts::4                  2                       # Per bank write bursts
system.mem_ctrl.perBankRdBursts::5                  9                       # Per bank write bursts
system.mem_ctrl.perBankRdBursts::6                 65                       # Per bank write bursts
system.mem_ctrl.perBankRdBursts::7                 45                       # Per bank write bursts
system.mem_ctrl.perBankRdBursts::8                  1                       # Per bank write bursts
system.mem_ctrl.perBankRdBursts::9                  7                       # Per bank write bursts
system.mem_ctrl.perBankRdBursts::10                26                       # Per bank write bursts
system.mem_ctrl.perBankRdBursts::11                11                       # Per bank write bursts
system.mem_ctrl.perBankRdBursts::12                46                       # Per bank write bursts
system.mem_ctrl.perBankRdBursts::13                84                       # Per bank write bursts
system.mem_ctrl.perBankRdBursts::14               112                       # Per bank write bursts
system.mem_ctrl.perBankRdBursts::15                95                       # Per bank write bursts
system.mem_ctrl.perBankWrBursts::0                  0                       # Per bank write bursts
system.mem_ctrl.perBankWrBursts::1                  0                       # Per bank write bursts
system.mem_ctrl.perBankWrBursts::2                  0                       # Per bank write bursts
system.mem_ctrl.perBankWrBursts::3                  0                       # Per bank write bursts
system.mem_ctrl.perBankWrBursts::4                  0                       # Per bank write bursts
system.mem_ctrl.perBankWrBursts::5                  0                       # Per bank write bursts
system.mem_ctrl.perBankWrBursts::6                  0                       # Per bank write bursts
system.mem_ctrl.perBankWrBursts::7                  0                       # Per bank write bursts
system.mem_ctrl.perBankWrBursts::8                  0                       # Per bank write bursts
system.mem_ctrl.perBankWrBursts::9                  0                       # Per bank write bursts
system.mem_ctrl.perBankWrBursts::10                 0                       # Per bank write bursts
system.mem_ctrl.perBankWrBursts::11                 0                       # Per bank write bursts
system.mem_ctrl.perBankWrBursts::12                 0                       # Per bank write bursts
system.mem_ctrl.perBankWrBursts::13                 0                       # Per bank write bursts
system.mem_ctrl.perBankWrBursts::14                 0                       # Per bank write bursts
system.mem_ctrl.perBankWrBursts::15                 0                       # Per bank write bursts
system.mem_ctrl.numRdRetry                          0                       # Number of times read queue was full causing retry
system.mem_ctrl.numWrRetry                          0                       # Number of times write queue was full causing retry
system.mem_ctrl.totGap                      696448000                       # Total gap between requests
system.mem_ctrl.readPktSize::0                      0                       # Read request sizes (log2)
system.mem_ctrl.readPktSize::1                      0                       # Read request sizes (log2)
system.mem_ctrl.readPktSize::2                      0                       # Read request sizes (log2)
system.mem_ctrl.readPktSize::3                      0                       # Read request sizes (log2)
system.mem_ctrl.readPktSize::4                      0                       # Read request sizes (log2)
system.mem_ctrl.readPktSize::5                      0                       # Read request sizes (log2)
system.mem_ctrl.readPktSize::6                    820                       # Read request sizes (log2)
system.mem_ctrl.writePktSize::0                     0                       # Write request sizes (log2)
system.mem_ctrl.writePktSize::1                     0                       # Write request sizes (log2)
system.mem_ctrl.writePktSize::2                     0                       # Write request sizes (log2)
system.mem_ctrl.writePktSize::3                     0                       # Write request sizes (log2)
system.mem_ctrl.writePktSize::4                     0                       # Write request sizes (log2)
system.mem_ctrl.writePktSize::5                     0                       # Write request sizes (log2)
system.mem_ctrl.writePktSize::6                     0                       # Write request sizes (log2)
system.mem_ctrl.rdQLenPdf::0                      579                       # What read queue length does an incoming req see
system.mem_ctrl.rdQLenPdf::1                      191                       # What read queue length does an incoming req see
system.mem_ctrl.rdQLenPdf::2                       41                       # What read queue length does an incoming req see
system.mem_ctrl.rdQLenPdf::3                        7                       # What read queue length does an incoming req see
system.mem_ctrl.rdQLenPdf::4                        2                       # What read queue length does an incoming req see
system.mem_ctrl.rdQLenPdf::5                        0                       # What read queue length does an incoming req see
system.mem_ctrl.rdQLenPdf::6                        0                       # What read queue length does an incoming req see
system.mem_ctrl.rdQLenPdf::7                        0                       # What read queue length does an incoming req see
system.mem_ctrl.rdQLenPdf::8                        0                       # What read queue length does an incoming req see
system.mem_ctrl.rdQLenPdf::9                        0                       # What read queue length does an incoming req see
system.mem_ctrl.rdQLenPdf::10                       0                       # What read queue length does an incoming req see
system.mem_ctrl.rdQLenPdf::11                       0                       # What read queue length does an incoming req see
system.mem_ctrl.rdQLenPdf::12                       0                       # What read queue length does an incoming req see
system.mem_ctrl.rdQLenPdf::13                       0                       # What read queue length does an incoming req see
system.mem_ctrl.rdQLenPdf::14                       0                       # What read queue length does an incoming req see
system.mem_ctrl.rdQLenPdf::15                       0                       # What read queue length does an incoming req see
system.mem_ctrl.rdQLenPdf::16                       0                       # What read queue length does an incoming req see
system.mem_ctrl.rdQLenPdf::17                       0                       # What read queue length does an incoming req see
system.mem_ctrl.rdQLenPdf::18                       0                       # What read queue length does an incoming req see
system.mem_ctrl.rdQLenPdf::19                       0                       # What read queue length does an incoming req see
system.mem_ctrl.rdQLenPdf::20                       0                       # What read queue length does an incoming req see
system.mem_ctrl.rdQLenPdf::21                       0                       # What read queue length does an incoming req see
system.mem_ctrl.rdQLenPdf::22                       0                       # What read queue length does an incoming req see
system.mem_ctrl.rdQLenPdf::23                       0                       # What read queue length does an incoming req see
system.mem_ctrl.rdQLenPdf::24                       0                       # What read queue length does an incoming req see
system.mem_ctrl.rdQLenPdf::25                       0                       # What read queue length does an incoming req see
system.mem_ctrl.rdQLenPdf::26                       0                       # What read queue length does an incoming req see
system.mem_ctrl.rdQLenPdf::27                       0                       # What read queue length does an incoming req see
system.mem_ctrl.rdQLenPdf::28                       0                       # What read queue length does an incoming req see
system.mem_ctrl.rdQLenPdf::29                       0                       # What read queue length does an incoming req see
system.mem_ctrl.rdQLenPdf::30                       0                       # What read queue length does an incoming req see
system.mem_ctrl.rdQLenPdf::31                       0                       # What read queue length does an incoming req see
system.mem_ctrl.wrQLenPdf::0                        0                       # What write queue length does an incoming req see
system.mem_ctrl.wrQLenPdf::1                        0                       # What write queue length does an incoming req see
system.mem_ctrl.wrQLenPdf::2                        0                       # What write queue length does an incoming req see
system.mem_ctrl.wrQLenPdf::3                        0                       # What write queue length does an incoming req see
system.mem_ctrl.wrQLenPdf::4                        0                       # What write queue length does an incoming req see
system.mem_ctrl.wrQLenPdf::5                        0                       # What write queue length does an incoming req see
system.mem_ctrl.wrQLenPdf::6                        0                       # What write queue length does an incoming req see
system.mem_ctrl.wrQLenPdf::7                        0                       # What write queue length does an incoming req see
system.mem_ctrl.wrQLenPdf::8                        0                       # What write queue length does an incoming req see
system.mem_ctrl.wrQLenPdf::9                        0                       # What write queue length does an incoming req see
system.mem_ctrl.wrQLenPdf::10                       0                       # What write queue length does an incoming req see
system.mem_ctrl.wrQLenPdf::11                       0                       # What write queue length does an incoming req see
system.mem_ctrl.wrQLenPdf::12                       0                       # What write queue length does an incoming req see
system.mem_ctrl.wrQLenPdf::13                       0                       # What write queue length does an incoming req see
system.mem_ctrl.wrQLenPdf::14                       0                       # What write queue length does an incoming req see
system.mem_ctrl.wrQLenPdf::15                       0                       # What write queue length does an incoming req see
system.mem_ctrl.wrQLenPdf::16                       0                       # What write queue length does an incoming req see
system.mem_ctrl.wrQLenPdf::17                       0                       # What write queue length does an incoming req see
system.mem_ctrl.wrQLenPdf::18                       0                       # What write queue length does an incoming req see
system.mem_ctrl.wrQLenPdf::19                       0                       # What write queue length does an incoming req see
system.mem_ctrl.wrQLenPdf::20                       0                       # What write queue length does an incoming req see
system.mem_ctrl.wrQLenPdf::21                       0                       # What write queue length does an incoming req see
system.mem_ctrl.wrQLenPdf::22                       0                       # What write queue length does an incoming req see
system.mem_ctrl.wrQLenPdf::23                       0                       # What write queue length does an incoming req see
system.mem_ctrl.wrQLenPdf::24                       0                       # What write queue length does an incoming req see
system.mem_ctrl.wrQLenPdf::25                       0                       # What write queue length does an incoming req see
system.mem_ctrl.wrQLenPdf::26                       0                       # What write queue length does an incoming req see
system.mem_ctrl.wrQLenPdf::27                       0                       # What write queue length does an incoming req see
system.mem_ctrl.wrQLenPdf::28                       0                       # What write queue length does an incoming req see
system.mem_ctrl.wrQLenPdf::29                       0                       # What write queue length does an incoming req see
system.mem_ctrl.wrQLenPdf::30                       0                       # What write queue length does an incoming req see
system.mem_ctrl.wrQLenPdf::31                       0                       # What write queue length does an incoming req see
system.mem_ctrl.wrQLenPdf::32                       0                       # What write queue length does an incoming req see
system.mem_ctrl.wrQLenPdf::33                       0                       # What write queue length does an incoming req see
system.mem_ctrl.wrQLenPdf::34                       0                       # What write queue length does an incoming req see
system.mem_ctrl.wrQLenPdf::35                       0                       # What write queue length does an incoming req see
system.mem_ctrl.wrQLenPdf::36                       0                       # What write queue length does an incoming req see
system.mem_ctrl.wrQLenPdf::37                       0                       # What write queue length does an incoming req see
system.mem_ctrl.wrQLenPdf::38                       0                       # What write queue length does an incoming req see
system.mem_ctrl.wrQLenPdf::39                       0                       # What write queue length does an incoming req see
system.mem_ctrl.wrQLenPdf::40                       0                       # What write queue length does an incoming req see
system.mem_ctrl.wrQLenPdf::41                       0                       # What write queue length does an incoming req see
system.mem_ctrl.wrQLenPdf::42                       0                       # What write queue length does an incoming req see
system.mem_ctrl.wrQLenPdf::43                       0                       # What write queue length does an incoming req see
system.mem_ctrl.wrQLenPdf::44                       0                       # What write queue length does an incoming req see
system.mem_ctrl.wrQLenPdf::45                       0                       # What write queue length does an incoming req see
system.mem_ctrl.wrQLenPdf::46                       0                       # What write queue length does an incoming req see
system.mem_ctrl.wrQLenPdf::47                       0                       # What write queue length does an incoming req see
system.mem_ctrl.wrQLenPdf::48                       0                       # What write queue length does an incoming req see
system.mem_ctrl.wrQLenPdf::49                       0                       # What write queue length does an incoming req see
system.mem_ctrl.wrQLenPdf::50                       0                       # What write queue length does an incoming req see
system.mem_ctrl.wrQLenPdf::51                       0                       # What write queue length does an incoming req see
system.mem_ctrl.wrQLenPdf::52                       0                       # What write queue length does an incoming req see
system.mem_ctrl.wrQLenPdf::53                       0                       # What write queue length does an incoming req see
system.mem_ctrl.wrQLenPdf::54                       0                       # What write queue length does an incoming req see
system.mem_ctrl.wrQLenPdf::55                       0                       # What write queue length does an incoming req see
system.mem_ctrl.wrQLenPdf::56                       0                       # What write queue length does an incoming req see
system.mem_ctrl.wrQLenPdf::57                       0                       # What write queue length does an incoming req see
system.mem_ctrl.wrQLenPdf::58                       0                       # What write queue length does an incoming req see
system.mem_ctrl.wrQLenPdf::59                       0                       # What write queue length does an incoming req see
system.mem_ctrl.wrQLenPdf::60                       0                       # What write queue length does an incoming req see
system.mem_ctrl.wrQLenPdf::61                       0                       # What write queue length does an incoming req see
system.mem_ctrl.wrQLenPdf::62                       0                       # What write queue length does an incoming req see
system.mem_ctrl.wrQLenPdf::63                       0                       # What write queue length does an incoming req see
system.mem_ctrl.bytesPerActivate::samples          210                       # Bytes accessed per row activation
system.mem_ctrl.bytesPerActivate::mean     243.200000                       # Bytes accessed per row activation
system.mem_ctrl.bytesPerActivate::gmean    143.132256                       # Bytes accessed per row activation
system.mem_ctrl.bytesPerActivate::stdev    284.554832                       # Bytes accessed per row activation
system.mem_ctrl.bytesPerActivate::0-127           107     50.95%     50.95% # Bytes accessed per row activation
system.mem_ctrl.bytesPerActivate::128-255           37     17.62%     68.57% # Bytes accessed per row activation
system.mem_ctrl.bytesPerActivate::256-383           20      9.52%     78.10% # Bytes accessed per row activation
system.mem_ctrl.bytesPerActivate::384-511           12      5.71%     83.81% # Bytes accessed per row activation
system.mem_ctrl.bytesPerActivate::512-639            5      2.38%     86.19% # Bytes accessed per row activation
system.mem_ctrl.bytesPerActivate::640-767            9      4.29%     90.48% # Bytes accessed per row activation
system.mem_ctrl.bytesPerActivate::768-895            3      1.43%     91.90% # Bytes accessed per row activation
system.mem_ctrl.bytesPerActivate::896-1023            3      1.43%     93.33% # Bytes accessed per row activation
system.mem_ctrl.bytesPerActivate::1024-1151           14      6.67%    100.00% # Bytes accessed per row activation
system.mem_ctrl.bytesPerActivate::total           210                       # Bytes accessed per row activation
system.mem_ctrl.masterReadBytes::.cpu.inst        28160                       # Per-master bytes read from memory
system.mem_ctrl.masterReadBytes::.cpu.data        24320                       # Per-master bytes read from memory
system.mem_ctrl.masterReadRate::.cpu.inst 40428896.611280322075                       # Per-master bytes read from memory rate (Bytes/sec)
system.mem_ctrl.masterReadRate::.cpu.data 34915865.255196645856                       # Per-master bytes read from memory rate (Bytes/sec)
system.mem_ctrl.masterReadAccesses::.cpu.inst          440                       # Per-master read serviced memory accesses
system.mem_ctrl.masterReadAccesses::.cpu.data          380                       # Per-master read serviced memory accesses
system.mem_ctrl.masterReadTotalLat::.cpu.inst     15402250                       # Per-master read total memory access latency
system.mem_ctrl.masterReadTotalLat::.cpu.data     21785250                       # Per-master read total memory access latency
system.mem_ctrl.masterReadAvgLat::.cpu.inst     35005.11                       # Per-master read average memory access latency
system.mem_ctrl.masterReadAvgLat::.cpu.data     57329.61                       # Per-master read average memory access latency
system.mem_ctrl.totQLat                      21812500                       # Total ticks spent queuing
system.mem_ctrl.totMemAccLat                 37187500                       # Total ticks spent from burst creation until serviced by the DRAM
system.mem_ctrl.totBusLat                     4100000                       # Total ticks spent in databus transfers
system.mem_ctrl.avgQLat                      26600.61                       # Average queueing delay per DRAM burst
system.mem_ctrl.avgBusLat                     5000.00                       # Average bus latency per DRAM burst
system.mem_ctrl.avgMemAccLat                 45350.61                       # Average memory access latency per DRAM burst
system.mem_ctrl.avgRdBW                         75.34                       # Average DRAM read bandwidth in MiByte/s
system.mem_ctrl.avgWrBW                          0.00                       # Average achieved write bandwidth in MiByte/s
system.mem_ctrl.avgRdBWSys                      75.34                       # Average system read bandwidth in MiByte/s
system.mem_ctrl.avgWrBWSys                       0.00                       # Average system write bandwidth in MiByte/s
system.mem_ctrl.peakBW                       12800.00                       # Theoretical peak bandwidth in MiByte/s
system.mem_ctrl.busUtil                          0.59                       # Data bus utilization in percentage
system.mem_ctrl.busUtilRead                      0.59                       # Data bus utilization in percentage for reads
system.mem_ctrl.busUtilWrite                     0.00                       # Data bus utilization in percentage for writes
system.mem_ctrl.avgRdQLen                        1.04                       # Average read queue length when enqueuing
system.mem_ctrl.avgWrQLen                        0.00                       # Average write queue length when enqueuing
system.mem_ctrl.readRowHits                       603                       # Number of row buffer hits during reads
system.mem_ctrl.writeRowHits                        0                       # Number of row buffer hits during writes
system.mem_ctrl.readRowHitRate                  73.54                       # Row buffer hit rate for reads
system.mem_ctrl.writeRowHitRate                   nan                       # Row buffer hit rate for writes
system.mem_ctrl.avgGap                      849326.83                       # Average gap between requests
system.mem_ctrl.pageHitRate                     73.54                       # Row buffer hit rate, read and write combined
system.mem_ctrl_0.actEnergy                    913920                       # Energy for activate commands per rank (pJ)
system.mem_ctrl_0.preEnergy                    481965                       # Energy for precharge commands per rank (pJ)
system.mem_ctrl_0.readEnergy                  3127320                       # Energy for read commands per rank (pJ)
system.mem_ctrl_0.writeEnergy                       0                       # Energy for write commands per rank (pJ)
system.mem_ctrl_0.refreshEnergy          50400480.000000                       # Energy for refresh commands per rank (pJ)
system.mem_ctrl_0.actBackEnergy              14849640                       # Energy for active background per rank (pJ)
system.mem_ctrl_0.preBackEnergy               2530080                       # Energy for precharge background per rank (pJ)
system.mem_ctrl_0.actPowerDownEnergy        140893170                       # Energy for active power-down per rank (pJ)
system.mem_ctrl_0.prePowerDownEnergy        113372640                       # Energy for precharge power-down per rank (pJ)
system.mem_ctrl_0.selfRefreshEnergy          21042300                       # Energy for self refresh per rank (pJ)
system.mem_ctrl_0.totalEnergy               347611515                       # Total energy per rank (pJ)
system.mem_ctrl_0.averagePower             499.060724                       # Core power per rank (mW)
system.mem_ctrl_0.totalIdleTime             657344500                       # Total Idle time Per DRAM Rank
system.mem_ctrl_0.memoryStateTime::IDLE       4542500                       # Time in different power states
system.mem_ctrl_0.memoryStateTime::REF       21320000                       # Time in different power states
system.mem_ctrl_0.memoryStateTime::SREF      53160750                       # Time in different power states
system.mem_ctrl_0.memoryStateTime::PRE_PDN    295241000                       # Time in different power states
system.mem_ctrl_0.memoryStateTime::ACT       13284250                       # Time in different power states
system.mem_ctrl_0.memoryStateTime::ACT_PDN    308983000                       # Time in different power states
system.mem_ctrl_1.actEnergy                    635460                       # Energy for activate commands per rank (pJ)
system.mem_ctrl_1.preEnergy                    314985                       # Energy for precharge commands per rank (pJ)
system.mem_ctrl_1.readEnergy                  2727480                       # Energy for read commands per rank (pJ)
system.mem_ctrl_1.writeEnergy                       0                       # Energy for write commands per rank (pJ)
system.mem_ctrl_1.refreshEnergy          6761040.000000                       # Energy for refresh commands per rank (pJ)
system.mem_ctrl_1.actBackEnergy               5644140                       # Energy for active background per rank (pJ)
system.mem_ctrl_1.preBackEnergy                289920                       # Energy for precharge background per rank (pJ)
system.mem_ctrl_1.actPowerDownEnergy         28926360                       # Energy for active power-down per rank (pJ)
system.mem_ctrl_1.prePowerDownEnergy          4894560                       # Energy for precharge power-down per rank (pJ)
system.mem_ctrl_1.selfRefreshEnergy         146284740                       # Energy for self refresh per rank (pJ)
system.mem_ctrl_1.totalEnergy               196478685                       # Total energy per rank (pJ)
system.mem_ctrl_1.averagePower             282.081550                       # Core power per rank (mW)
system.mem_ctrl_1.totalIdleTime             683169000                       # Total Idle time Per DRAM Rank
system.mem_ctrl_1.memoryStateTime::IDLE        448500                       # Time in different power states
system.mem_ctrl_1.memoryStateTime::REF        2860000                       # Time in different power states
system.mem_ctrl_1.memoryStateTime::SREF     607218750                       # Time in different power states
system.mem_ctrl_1.memoryStateTime::PRE_PDN     12745500                       # Time in different power states
system.mem_ctrl_1.memoryStateTime::ACT        9811250                       # Time in different power states
system.mem_ctrl_1.memoryStateTime::ACT_PDN     63447500                       # Time in different power states
system.pwrStateResidencyTicks::UNDEFINED    696531500                       # Cumulative time (in ticks) in various power states
system.cpu.branchPred.lookups                   65254                       # Number of BP lookups
system.cpu.branchPred.condPredicted             65254                       # Number of conditional branches predicted
system.cpu.branchPred.condIncorrect              1925                       # Number of conditional branches incorrect
system.cpu.branchPred.BTBLookups                59313                       # Number of BTB lookups
system.cpu.branchPred.BTBHits                       0                       # Number of BTB hits
system.cpu.branchPred.BTBCorrect                    0                       # Number of correct BTB predictions (this stat may not work properly.
system.cpu.branchPred.BTBHitPct              0.000000                       # BTB Hit Percentage
system.cpu.branchPred.usedRAS                    5867                       # Number of times the RAS was used to get a target.
system.cpu.branchPred.RASInCorrect                131                       # Number of incorrect RAS predictions.
system.cpu.branchPred.indirectLookups           59313                       # Number of indirect predictor lookups.
system.cpu.branchPred.indirectHits              49022                       # Number of indirect target hits.
system.cpu.branchPred.indirectMisses            10291                       # Number of indirect misses.
system.cpu.branchPredindirectMispredicted          641                       # Number of mispredicted indirect branches.
system.cpu.dtb.walker.pwrStateResidencyTicks::UNDEFINED    696531500                       # Cumulative time (in ticks) in various power states
system.cpu.dtb.rdAccesses                      542413                       # TLB accesses on read requests
system.cpu.dtb.wrAccesses                       80353                       # TLB accesses on write requests
system.cpu.dtb.rdMisses                            86                       # TLB misses on read requests
system.cpu.dtb.wrMisses                            31                       # TLB misses on write requests
system.cpu.apic_clk_domain.clock                 8000                       # Clock period in ticks
system.cpu.interrupts.pwrStateResidencyTicks::UNDEFINED    696531500                       # Cumulative time (in ticks) in various power states
system.cpu.itb.walker.pwrStateResidencyTicks::UNDEFINED    696531500                       # Cumulative time (in ticks) in various power states
system.cpu.itb.rdAccesses                           0                       # TLB accesses on read requests
system.cpu.itb.wrAccesses                      141740                       # TLB accesses on write requests
system.cpu.itb.rdMisses                             0                       # TLB misses on read requests
system.cpu.itb.wrMisses                           125                       # TLB misses on write requests
system.cpu.workload.numSyscalls                     9                       # Number of system calls
system.cpu.pwrStateResidencyTicks::ON       696531500                       # Cumulative time (in ticks) in various power states
system.cpu.numCycles                          1393064                       # number of cpu cycles simulated
system.cpu.numWorkItemsStarted                      0                       # number of work items this cpu started
system.cpu.numWorkItemsCompleted                    0                       # number of work items this cpu completed
system.cpu.fetch.icacheStallCycles              29423                       # Number of cycles fetch is stalled on an Icache miss
system.cpu.fetch.Insts                        1469401                       # Number of instructions fetch has processed
system.cpu.fetch.Branches                       65254                       # Number of branches that fetch encountered
system.cpu.fetch.predictedBranches              54889                       # Number of branches that fetch has predicted taken
system.cpu.fetch.Cycles                       1338875                       # Number of cycles fetch has run and was not squashing or blocked
system.cpu.fetch.SquashCycles                    4004                       # Number of cycles fetch has spent squashing
system.cpu.fetch.MiscStallCycles                   62                       # Number of cycles fetch has spent waiting on interrupts, or bad addresses, or out of MSHRs
system.cpu.fetch.PendingTrapStallCycles           886                       # Number of stall cycles due to pending traps
system.cpu.fetch.PendingQuiesceStallCycles           18                       # Number of stall cycles due to pending quiesce instructions
system.cpu.fetch.IcacheWaitRetryStallCycles           41                       # Number of stall cycles due to full MSHR
system.cpu.fetch.CacheLines                    141655                       # Number of cache lines fetched
system.cpu.fetch.IcacheSquashes                   255                       # Number of outstanding Icache misses that were squashed
system.cpu.fetch.rateDist::samples            1371307                       # Number of instructions fetched each cycle (Total)
system.cpu.fetch.rateDist::mean              1.602976                       # Number of instructions fetched each cycle (Total)
system.cpu.fetch.rateDist::stdev             0.760229                       # Number of instructions fetched each cycle (Total)
system.cpu.fetch.rateDist::underflows               0      0.00%      0.00% # Number of instructions fetched each cycle (Total)
system.cpu.fetch.rateDist::0                   232129     16.93%     16.93% # Number of instructions fetched each cycle (Total)
system.cpu.fetch.rateDist::1                    80184      5.85%     22.77% # Number of instructions fetched each cycle (Total)
system.cpu.fetch.rateDist::2                  1058994     77.23%    100.00% # Number of instructions fetched each cycle (Total)
system.cpu.fetch.rateDist::overflows                0      0.00%    100.00% # Number of instructions fetched each cycle (Total)
system.cpu.fetch.rateDist::min_value                0                       # Number of instructions fetched each cycle (Total)
system.cpu.fetch.rateDist::max_value                2                       # Number of instructions fetched each cycle (Total)
system.cpu.fetch.rateDist::total              1371307                       # Number of instructions fetched each cycle (Total)
system.cpu.fetch.branchRate                  0.046842                       # Number of branch fetches per cycle
system.cpu.fetch.rate                        1.054798                       # Number of inst fetches per cycle
system.cpu.decode.IdleCycles                    92526                       # Number of cycles decode is idle
system.cpu.decode.BlockedCycles                184997                       # Number of cycles decode is blocked
system.cpu.decode.RunCycles                   1011548                       # Number of cycles decode is running
system.cpu.decode.UnblockCycles                 80234                       # Number of cycles decode is unblocking
system.cpu.decode.SquashCycles                   2002                       # Number of cycles decode is squashing
system.cpu.decode.DecodedInsts                2158884                       # Number of instructions handled by decode
system.cpu.decode.SquashedInsts                  6319                       # Number of squashed instructions handled by decode
system.cpu.rename.SquashCycles                   2002                       # Number of cycles rename is squashing
system.cpu.rename.IdleCycles                   137791                       # Number of cycles rename is idle
system.cpu.rename.BlockCycles                   15437                       # Number of cycles rename is blocking
system.cpu.rename.serializeStallCycles           2319                       # count of cycles rename stalled for serializing inst
system.cpu.rename.RunCycles                   1045127                       # Number of cycles rename is running
system.cpu.rename.UnblockCycles                168631                       # Number of cycles rename is unblocking
system.cpu.rename.RenamedInsts                2152574                       # Number of instructions processed by rename
system.cpu.rename.SquashedInsts                  2961                       # Number of squashed instructions processed by rename
system.cpu.rename.ROBFullEvents                    22                       # Number of times rename has blocked due to ROB full
system.cpu.rename.IQFullEvents                  16949                       # Number of times rename has blocked due to IQ full
system.cpu.rename.LQFullEvents                  88979                       # Number of times rename has blocked due to LQ full
system.cpu.rename.SQFullEvents                  21286                       # Number of times rename has blocked due to SQ full
system.cpu.rename.FullRegisterEvents             1218                       # Number of times there has been no free registers
system.cpu.rename.RenamedOperands             2905156                       # Number of destination operands rename has renamed
system.cpu.rename.RenameLookups               4807465                       # Number of register rename lookups that rename has made
system.cpu.rename.int_rename_lookups          3433948                       # Number of integer rename lookups
system.cpu.rename.fp_rename_lookups            204701                       # Number of floating rename lookups
system.cpu.rename.CommittedMaps               2851558                       # Number of HB maps that are committed
system.cpu.rename.UndoneMaps                    53598                       # Number of HB maps that are undone due to squashing
system.cpu.rename.serializingInsts                 24                       # count of serializing insts renamed
system.cpu.rename.tempSerializingInsts             20                       # count of temporary serializing insts renamed
system.cpu.rename.skidInsts                    102679                       # count of insts added to the skid buffer
system.cpu.memDep0.insertedLoads               545981                       # Number of loads inserted to the mem dependence unit.
system.cpu.memDep0.insertedStores               81194                       # Number of stores inserted to the mem dependence unit.
system.cpu.memDep0.conflictingLoads             93459                       # Number of conflicting loads.
system.cpu.memDep0.conflictingStores               75                       # Number of conflicting stores.
system.cpu.iq.iqInstsAdded                    2146067                       # Number of instructions added to the IQ (excludes non-spec)
system.cpu.iq.iqNonSpecInstsAdded                 113                       # Number of non-speculative instructions added to the IQ
system.cpu.iq.iqInstsIssued                   2131513                       # Number of instructions issued
system.cpu.iq.iqSquashedInstsIssued              1545                       # Number of squashed instructions issued
system.cpu.iq.iqSquashedInstsExamined           35469                       # Number of squashed instructions iterated over during squash; mainly for profiling
system.cpu.iq.iqSquashedOperandsExamined        47498                       # Number of squashed operands that are examined and possibly removed from graph
system.cpu.iq.iqSquashedNonSpecRemoved            104                       # Number of squashed non-spec instructions that were removed
system.cpu.iq.issued_per_cycle::samples       1371307                       # Number of insts issued each cycle
system.cpu.iq.issued_per_cycle::mean         1.554366                       # Number of insts issued each cycle
system.cpu.iq.issued_per_cycle::stdev        0.703917                       # Number of insts issued each cycle
system.cpu.iq.issued_per_cycle::underflows            0      0.00%      0.00% # Number of insts issued each cycle
system.cpu.iq.issued_per_cycle::0              170354     12.42%     12.42% # Number of insts issued each cycle
system.cpu.iq.issued_per_cycle::1              270393     19.72%     32.14% # Number of insts issued each cycle
system.cpu.iq.issued_per_cycle::2              930560     67.86%    100.00% # Number of insts issued each cycle
system.cpu.iq.issued_per_cycle::overflows            0      0.00%    100.00% # Number of insts issued each cycle
system.cpu.iq.issued_per_cycle::min_value            0                       # Number of insts issued each cycle
system.cpu.iq.issued_per_cycle::max_value            2                       # Number of insts issued each cycle
system.cpu.iq.issued_per_cycle::total         1371307                       # Number of insts issued each cycle
system.cpu.iq.fu_full::No_OpClass                   0      0.00%      0.00% # attempts to use FU when none available
system.cpu.iq.fu_full::IntAlu                       0      0.00%      0.00% # attempts to use FU when none available
system.cpu.iq.fu_full::IntMult                      0      0.00%      0.00% # attempts to use FU when none available
system.cpu.iq.fu_full::IntDiv                       1      0.00%      0.00% # attempts to use FU when none available
system.cpu.iq.fu_full::FloatAdd                  2697      1.93%      1.93% # attempts to use FU when none available
system.cpu.iq.fu_full::FloatCmp                     0      0.00%      1.93% # attempts to use FU when none available
system.cpu.iq.fu_full::FloatCvt                     0      0.00%      1.93% # attempts to use FU when none available
system.cpu.iq.fu_full::FloatMult                    0      0.00%      1.93% # attempts to use FU when none available
system.cpu.iq.fu_full::FloatMultAcc                 0      0.00%      1.93% # attempts to use FU when none available
system.cpu.iq.fu_full::FloatDiv                     0      0.00%      1.93% # attempts to use FU when none available
system.cpu.iq.fu_full::FloatMisc                    0      0.00%      1.93% # attempts to use FU when none available
system.cpu.iq.fu_full::FloatSqrt                    0      0.00%      1.93% # attempts to use FU when none available
system.cpu.iq.fu_full::SimdAdd                    250      0.18%      2.11% # attempts to use FU when none available
system.cpu.iq.fu_full::SimdAddAcc                   0      0.00%      2.11% # attempts to use FU when none available
system.cpu.iq.fu_full::SimdAlu                     53      0.04%      2.15% # attempts to use FU when none available
system.cpu.iq.fu_full::SimdCmp                      0      0.00%      2.15% # attempts to use FU when none available
system.cpu.iq.fu_full::SimdCvt                     19      0.01%      2.16% # attempts to use FU when none available
system.cpu.iq.fu_full::SimdMisc                   117      0.08%      2.24% # attempts to use FU when none available
system.cpu.iq.fu_full::SimdMult                     0      0.00%      2.24% # attempts to use FU when none available
system.cpu.iq.fu_full::SimdMultAcc                  0      0.00%      2.24% # attempts to use FU when none available
system.cpu.iq.fu_full::SimdShift                  124      0.09%      2.33% # attempts to use FU when none available
system.cpu.iq.fu_full::SimdShiftAcc                 0      0.00%      2.33% # attempts to use FU when none available
system.cpu.iq.fu_full::SimdSqrt                     0      0.00%      2.33% # attempts to use FU when none available
system.cpu.iq.fu_full::SimdFloatAdd                 0      0.00%      2.33% # attempts to use FU when none available
system.cpu.iq.fu_full::SimdFloatAlu                 0      0.00%      2.33% # attempts to use FU when none available
system.cpu.iq.fu_full::SimdFloatCmp                 0      0.00%      2.33% # attempts to use FU when none available
system.cpu.iq.fu_full::SimdFloatCvt                 0      0.00%      2.33% # attempts to use FU when none available
system.cpu.iq.fu_full::SimdFloatDiv                 0      0.00%      2.33% # attempts to use FU when none available
system.cpu.iq.fu_full::SimdFloatMisc                0      0.00%      2.33% # attempts to use FU when none available
system.cpu.iq.fu_full::SimdFloatMult                0      0.00%      2.33% # attempts to use FU when none available
system.cpu.iq.fu_full::SimdFloatMultAcc             0      0.00%      2.33% # attempts to use FU when none available
system.cpu.iq.fu_full::SimdFloatSqrt                0      0.00%      2.33% # attempts to use FU when none available
system.cpu.iq.fu_full::SimdAes                      0      0.00%      2.33% # attempts to use FU when none available
system.cpu.iq.fu_full::SimdAesMix                   0      0.00%      2.33% # attempts to use FU when none available
system.cpu.iq.fu_full::SimdSha1Hash                 0      0.00%      2.33% # attempts to use FU when none available
system.cpu.iq.fu_full::SimdSha1Hash2                0      0.00%      2.33% # attempts to use FU when none available
system.cpu.iq.fu_full::SimdSha256Hash               0      0.00%      2.33% # attempts to use FU when none available
system.cpu.iq.fu_full::SimdSha256Hash2              0      0.00%      2.33% # attempts to use FU when none available
system.cpu.iq.fu_full::SimdShaSigma2                0      0.00%      2.33% # attempts to use FU when none available
system.cpu.iq.fu_full::SimdShaSigma3                0      0.00%      2.33% # attempts to use FU when none available
system.cpu.iq.fu_full::MemRead                 135593     96.95%     99.28% # attempts to use FU when none available
system.cpu.iq.fu_full::MemWrite                  1009      0.72%    100.00% # attempts to use FU when none available
system.cpu.iq.fu_full::FloatMemRead                 0      0.00%    100.00% # attempts to use FU when none available
system.cpu.iq.fu_full::FloatMemWrite                0      0.00%    100.00% # attempts to use FU when none available
system.cpu.iq.fu_full::IprAccess                    0      0.00%    100.00% # attempts to use FU when none available
system.cpu.iq.fu_full::InstPrefetch                 0      0.00%    100.00% # attempts to use FU when none available
system.cpu.iq.FU_type_0::No_OpClass               282      0.01%      0.01% # Type of FU issued
system.cpu.iq.FU_type_0::IntAlu               1167556     54.78%     54.79% # Type of FU issued
system.cpu.iq.FU_type_0::IntMult               114781      5.38%     60.17% # Type of FU issued
system.cpu.iq.FU_type_0::IntDiv                    37      0.00%     60.18% # Type of FU issued
system.cpu.iq.FU_type_0::FloatAdd              164056      7.70%     67.87% # Type of FU issued
system.cpu.iq.FU_type_0::FloatCmp                   0      0.00%     67.87% # Type of FU issued
system.cpu.iq.FU_type_0::FloatCvt                   0      0.00%     67.87% # Type of FU issued
system.cpu.iq.FU_type_0::FloatMult                  0      0.00%     67.87% # Type of FU issued
system.cpu.iq.FU_type_0::FloatMultAcc               0      0.00%     67.87% # Type of FU issued
system.cpu.iq.FU_type_0::FloatDiv                   0      0.00%     67.87% # Type of FU issued
system.cpu.iq.FU_type_0::FloatMisc                  0      0.00%     67.87% # Type of FU issued
system.cpu.iq.FU_type_0::FloatSqrt                  0      0.00%     67.87% # Type of FU issued
system.cpu.iq.FU_type_0::SimdAdd                  375      0.02%     67.89% # Type of FU issued
system.cpu.iq.FU_type_0::SimdAddAcc                 0      0.00%     67.89% # Type of FU issued
system.cpu.iq.FU_type_0::SimdAlu                 1931      0.09%     67.98% # Type of FU issued
system.cpu.iq.FU_type_0::SimdCmp                    0      0.00%     67.98% # Type of FU issued
system.cpu.iq.FU_type_0::SimdCvt                  108      0.01%     67.99% # Type of FU issued
system.cpu.iq.FU_type_0::SimdMisc                2015      0.09%     68.08% # Type of FU issued
system.cpu.iq.FU_type_0::SimdMult                   0      0.00%     68.08% # Type of FU issued
system.cpu.iq.FU_type_0::SimdMultAcc                0      0.00%     68.08% # Type of FU issued
system.cpu.iq.FU_type_0::SimdShift                186      0.01%     68.09% # Type of FU issued
system.cpu.iq.FU_type_0::SimdShiftAcc               0      0.00%     68.09% # Type of FU issued
system.cpu.iq.FU_type_0::SimdSqrt                   0      0.00%     68.09% # Type of FU issued
system.cpu.iq.FU_type_0::SimdFloatAdd           27000      1.27%     69.36% # Type of FU issued
system.cpu.iq.FU_type_0::SimdFloatAlu               0      0.00%     69.36% # Type of FU issued
system.cpu.iq.FU_type_0::SimdFloatCmp               0      0.00%     69.36% # Type of FU issued
system.cpu.iq.FU_type_0::SimdFloatCvt            1800      0.08%     69.44% # Type of FU issued
system.cpu.iq.FU_type_0::SimdFloatDiv               0      0.00%     69.44% # Type of FU issued
system.cpu.iq.FU_type_0::SimdFloatMisc              0      0.00%     69.44% # Type of FU issued
system.cpu.iq.FU_type_0::SimdFloatMult          27000      1.27%     70.71% # Type of FU issued
system.cpu.iq.FU_type_0::SimdFloatMultAcc            0      0.00%     70.71% # Type of FU issued
system.cpu.iq.FU_type_0::SimdFloatSqrt              0      0.00%     70.71% # Type of FU issued
system.cpu.iq.FU_type_0::SimdAes                    0      0.00%     70.71% # Type of FU issued
system.cpu.iq.FU_type_0::SimdAesMix                 0      0.00%     70.71% # Type of FU issued
system.cpu.iq.FU_type_0::SimdSha1Hash               0      0.00%     70.71% # Type of FU issued
system.cpu.iq.FU_type_0::SimdSha1Hash2              0      0.00%     70.71% # Type of FU issued
system.cpu.iq.FU_type_0::SimdSha256Hash             0      0.00%     70.71% # Type of FU issued
system.cpu.iq.FU_type_0::SimdSha256Hash2            0      0.00%     70.71% # Type of FU issued
system.cpu.iq.FU_type_0::SimdShaSigma2              0      0.00%     70.71% # Type of FU issued
system.cpu.iq.FU_type_0::SimdShaSigma3              0      0.00%     70.71% # Type of FU issued
system.cpu.iq.FU_type_0::MemRead               462748     21.71%     92.42% # Type of FU issued
system.cpu.iq.FU_type_0::MemWrite               50445      2.37%     94.78% # Type of FU issued
system.cpu.iq.FU_type_0::FloatMemRead           81064      3.80%     98.59% # Type of FU issued
system.cpu.iq.FU_type_0::FloatMemWrite          30129      1.41%    100.00% # Type of FU issued
system.cpu.iq.FU_type_0::IprAccess                  0      0.00%    100.00% # Type of FU issued
system.cpu.iq.FU_type_0::InstPrefetch               0      0.00%    100.00% # Type of FU issued
system.cpu.iq.FU_type_0::total                2131513                       # Type of FU issued
system.cpu.iq.rate                           1.530090                       # Inst issue rate
system.cpu.iq.fu_busy_cnt                      139863                       # FU busy when requested
system.cpu.iq.fu_busy_rate                   0.065617                       # FU busy rate (busy events/executed inst)
system.cpu.iq.int_inst_queue_reads            5100100                       # Number of integer instruction queue reads
system.cpu.iq.int_inst_queue_writes           1841184                       # Number of integer instruction queue writes
system.cpu.iq.int_inst_queue_wakeup_accesses      1788605                       # Number of integer instruction queue wakeup accesses
system.cpu.iq.fp_inst_queue_reads              675641                       # Number of floating instruction queue reads
system.cpu.iq.fp_inst_queue_writes             340486                       # Number of floating instruction queue writes
system.cpu.iq.fp_inst_queue_wakeup_accesses       335146                       # Number of floating instruction queue wakeup accesses
system.cpu.iq.vec_inst_queue_reads                  0                       # Number of vector instruction queue reads
system.cpu.iq.vec_inst_queue_writes                 0                       # Number of vector instruction queue writes
system.cpu.iq.vec_inst_queue_wakeup_accesses            0                       # Number of vector instruction queue wakeup accesses
system.cpu.iq.int_alu_accesses                1931656                       # Number of integer alu accesses
system.cpu.iq.fp_alu_accesses                  339438                       # Number of floating point alu accesses
system.cpu.iq.vec_alu_accesses                      0                       # Number of vector alu accesses
system.cpu.iew.lsq.thread0.forwLoads           113546                       # Number of loads that had data forwarded from stores
system.cpu.iew.lsq.thread0.invAddrLoads             0                       # Number of loads ignored due to an invalid address
system.cpu.iew.lsq.thread0.squashedLoads         7987                       # Number of loads squashed
system.cpu.iew.lsq.thread0.ignoredResponses           10                       # Number of memory responses ignored because the instruction is squashed
system.cpu.iew.lsq.thread0.memOrderViolation           21                       # Number of memory ordering violations
system.cpu.iew.lsq.thread0.squashedStores         1396                       # Number of stores squashed
system.cpu.iew.lsq.thread0.invAddrSwpfs             0                       # Number of software prefetches ignored due to an invalid address
system.cpu.iew.lsq.thread0.blockedLoads             0                       # Number of blocked loads due to partial load-store forwarding
system.cpu.iew.lsq.thread0.rescheduledLoads            1                       # Number of loads that were rescheduled
system.cpu.iew.lsq.thread0.cacheBlocked            16                       # Number of times an access to memory failed due to the cache being blocked
system.cpu.iew.iewIdleCycles                        0                       # Number of cycles IEW is idle
system.cpu.iew.iewSquashCycles                   2002                       # Number of cycles IEW is squashing
system.cpu.iew.iewBlockCycles                    3279                       # Number of cycles IEW is blocking
system.cpu.iew.iewUnblockCycles                  5867                       # Number of cycles IEW is unblocking
system.cpu.iew.iewDispatchedInsts             2146180                       # Number of instructions dispatched to IQ
system.cpu.iew.iewDispSquashedInsts              1407                       # Number of squashed instructions skipped by dispatch
system.cpu.iew.iewDispLoadInsts                545981                       # Number of dispatched load instructions
system.cpu.iew.iewDispStoreInsts                81194                       # Number of dispatched store instructions
system.cpu.iew.iewDispNonSpecInsts                 50                       # Number of dispatched non-speculative instructions
system.cpu.iew.iewIQFullEvents                     17                       # Number of times the IQ has become full, causing a stall
system.cpu.iew.iewLSQFullEvents                  5815                       # Number of times the LSQ has become full, causing a stall
system.cpu.iew.memOrderViolationEvents             21                       # Number of memory order violations
system.cpu.iew.predictedTakenIncorrect           1264                       # Number of branches that were predicted taken incorrectly
system.cpu.iew.predictedNotTakenIncorrect          824                       # Number of branches that were predicted not taken incorrectly
system.cpu.iew.branchMispredicts                 2088                       # Number of branch mispredicts detected at execute
system.cpu.iew.iewExecutedInsts               2125965                       # Number of executed instructions
system.cpu.iew.iewExecLoadInsts                542409                       # Number of load instructions executed
system.cpu.iew.iewExecSquashedInsts              5548                       # Number of squashed instructions skipped in execute
system.cpu.iew.exec_swp                             0                       # number of swp insts executed
system.cpu.iew.exec_nop                             0                       # number of nop insts executed
system.cpu.iew.exec_refs                       622762                       # number of memory reference insts executed
system.cpu.iew.exec_branches                    62213                       # Number of branches executed
system.cpu.iew.exec_stores                      80353                       # Number of stores executed
system.cpu.iew.exec_rate                     1.526107                       # Inst execution rate
system.cpu.iew.wb_sent                        2124831                       # cumulative count of insts sent to commit
system.cpu.iew.wb_count                       2123751                       # cumulative count of insts written-back
system.cpu.iew.wb_producers                   1648186                       # num instructions producing a value
system.cpu.iew.wb_consumers                   2609624                       # num instructions consuming a value
system.cpu.iew.wb_rate                       1.524518                       # insts written-back per cycle
system.cpu.iew.wb_fanout                     0.631580                       # average fanout of values written-back
system.cpu.commit.commitSquashedInsts           32338                       # The number of squashed insts skipped by commit
system.cpu.commit.commitNonSpecStalls               9                       # The number of times commit has been forced to stall to communicate backwards
system.cpu.commit.branchMispredicts              1982                       # The number of times a branch was mispredicted
system.cpu.commit.committed_per_cycle::samples      1368138                       # Number of insts commited each cycle
system.cpu.commit.committed_per_cycle::mean     1.542761                       # Number of insts commited each cycle
system.cpu.commit.committed_per_cycle::stdev     0.804811                       # Number of insts commited each cycle
system.cpu.commit.committed_per_cycle::underflows            0      0.00%      0.00% # Number of insts commited each cycle
system.cpu.commit.committed_per_cycle::0       273319     19.98%     19.98% # Number of insts commited each cycle
system.cpu.commit.committed_per_cycle::1        78928      5.77%     25.75% # Number of insts commited each cycle
system.cpu.commit.committed_per_cycle::2      1015891     74.25%    100.00% # Number of insts commited each cycle
system.cpu.commit.committed_per_cycle::overflows            0      0.00%    100.00% # Number of insts commited each cycle
system.cpu.commit.committed_per_cycle::min_value            0                       # Number of insts commited each cycle
system.cpu.commit.committed_per_cycle::max_value            2                       # Number of insts commited each cycle
system.cpu.commit.committed_per_cycle::total      1368138                       # Number of insts commited each cycle
system.cpu.commit.committedInsts              1412913                       # Number of instructions committed
system.cpu.commit.committedOps                2110710                       # Number of ops (including micro ops) committed
system.cpu.commit.swp_count                         0                       # Number of s/w prefetches committed
system.cpu.commit.refs                         617792                       # Number of memory references committed
system.cpu.commit.loads                        537994                       # Number of loads committed
system.cpu.commit.membars                           0                       # Number of memory barriers committed
system.cpu.commit.branches                      61767                       # Number of branches committed
system.cpu.commit.vec_insts                         0                       # Number of committed Vector instructions.
system.cpu.commit.fp_insts                     334046                       # Number of committed floating point instructions.
system.cpu.commit.int_insts                   1889582                       # Number of committed integer instructions.
system.cpu.commit.function_calls                 5523                       # Number of function calls committed.
system.cpu.commit.op_class_0::No_OpClass          104      0.00%      0.00% # Class of committed instruction
system.cpu.commit.op_class_0::IntAlu          1156089     54.77%     54.78% # Class of committed instruction
system.cpu.commit.op_class_0::IntMult          114328      5.42%     60.19% # Class of committed instruction
system.cpu.commit.op_class_0::IntDiv               35      0.00%     60.20% # Class of committed instruction
system.cpu.commit.op_class_0::FloatAdd         162010      7.68%     67.87% # Class of committed instruction
system.cpu.commit.op_class_0::FloatCmp              0      0.00%     67.87% # Class of committed instruction
system.cpu.commit.op_class_0::FloatCvt              0      0.00%     67.87% # Class of committed instruction
system.cpu.commit.op_class_0::FloatMult             0      0.00%     67.87% # Class of committed instruction
system.cpu.commit.op_class_0::FloatMultAcc            0      0.00%     67.87% # Class of committed instruction
system.cpu.commit.op_class_0::FloatDiv              0      0.00%     67.87% # Class of committed instruction
system.cpu.commit.op_class_0::FloatMisc             0      0.00%     67.87% # Class of committed instruction
system.cpu.commit.op_class_0::FloatSqrt             0      0.00%     67.87% # Class of committed instruction
system.cpu.commit.op_class_0::SimdAdd             374      0.02%     67.89% # Class of committed instruction
system.cpu.commit.op_class_0::SimdAddAcc            0      0.00%     67.89% # Class of committed instruction
system.cpu.commit.op_class_0::SimdAlu            1870      0.09%     67.98% # Class of committed instruction
system.cpu.commit.op_class_0::SimdCmp               0      0.00%     67.98% # Class of committed instruction
system.cpu.commit.op_class_0::SimdCvt             108      0.01%     67.98% # Class of committed instruction
system.cpu.commit.op_class_0::SimdMisc           2014      0.10%     68.08% # Class of committed instruction
system.cpu.commit.op_class_0::SimdMult              0      0.00%     68.08% # Class of committed instruction
system.cpu.commit.op_class_0::SimdMultAcc            0      0.00%     68.08% # Class of committed instruction
system.cpu.commit.op_class_0::SimdShift           186      0.01%     68.09% # Class of committed instruction
system.cpu.commit.op_class_0::SimdShiftAcc            0      0.00%     68.09% # Class of committed instruction
system.cpu.commit.op_class_0::SimdSqrt              0      0.00%     68.09% # Class of committed instruction
system.cpu.commit.op_class_0::SimdFloatAdd        27000      1.28%     69.37% # Class of committed instruction
system.cpu.commit.op_class_0::SimdFloatAlu            0      0.00%     69.37% # Class of committed instruction
system.cpu.commit.op_class_0::SimdFloatCmp            0      0.00%     69.37% # Class of committed instruction
system.cpu.commit.op_class_0::SimdFloatCvt         1800      0.09%     69.45% # Class of committed instruction
system.cpu.commit.op_class_0::SimdFloatDiv            0      0.00%     69.45% # Class of committed instruction
system.cpu.commit.op_class_0::SimdFloatMisc            0      0.00%     69.45% # Class of committed instruction
system.cpu.commit.op_class_0::SimdFloatMult        27000      1.28%     70.73% # Class of committed instruction
system.cpu.commit.op_class_0::SimdFloatMultAcc            0      0.00%     70.73% # Class of committed instruction
system.cpu.commit.op_class_0::SimdFloatSqrt            0      0.00%     70.73% # Class of committed instruction
system.cpu.commit.op_class_0::SimdAes               0      0.00%     70.73% # Class of committed instruction
system.cpu.commit.op_class_0::SimdAesMix            0      0.00%     70.73% # Class of committed instruction
system.cpu.commit.op_class_0::SimdSha1Hash            0      0.00%     70.73% # Class of committed instruction
system.cpu.commit.op_class_0::SimdSha1Hash2            0      0.00%     70.73% # Class of committed instruction
system.cpu.commit.op_class_0::SimdSha256Hash            0      0.00%     70.73% # Class of committed instruction
system.cpu.commit.op_class_0::SimdSha256Hash2            0      0.00%     70.73% # Class of committed instruction
system.cpu.commit.op_class_0::SimdShaSigma2            0      0.00%     70.73% # Class of committed instruction
system.cpu.commit.op_class_0::SimdShaSigma3            0      0.00%     70.73% # Class of committed instruction
system.cpu.commit.op_class_0::MemRead          456938     21.65%     92.38% # Class of committed instruction
system.cpu.commit.op_class_0::MemWrite          49682      2.35%     94.73% # Class of committed instruction
system.cpu.commit.op_class_0::FloatMemRead        81056      3.84%     98.57% # Class of committed instruction
system.cpu.commit.op_class_0::FloatMemWrite        30116      1.43%    100.00% # Class of committed instruction
system.cpu.commit.op_class_0::IprAccess             0      0.00%    100.00% # Class of committed instruction
system.cpu.commit.op_class_0::InstPrefetch            0      0.00%    100.00% # Class of committed instruction
system.cpu.commit.op_class_0::total           2110710                       # Class of committed instruction
system.cpu.commit.bw_lim_events               1015891                       # number cycles where commit BW limit reached
system.cpu.rob.rob_reads                      2495295                       # The number of ROB reads
system.cpu.rob.rob_writes                     4289265                       # The number of ROB writes
system.cpu.timesIdled                             268                       # Number of times that the entire CPU went into an idle state and unscheduled itself
system.cpu.idleCycles                           21757                       # Total number of cycles that the CPU has spent unscheduled due to idling
system.cpu.committedInsts                     1412913                       # Number of Instructions Simulated
system.cpu.committedOps                       2110710                       # Number of Ops (including micro ops) Simulated
system.cpu.cpi                               0.985952                       # CPI: Cycles Per Instruction
system.cpu.cpi_total                         0.985952                       # CPI: Total CPI of All Threads
system.cpu.ipc                               1.014248                       # IPC: Instructions Per Cycle
system.cpu.ipc_total                         1.014248                       # IPC: Total IPC of All Threads
system.cpu.int_regfile_reads                  3388539                       # number of integer regfile reads
system.cpu.int_regfile_writes                 1790957                       # number of integer regfile writes
system.cpu.fp_regfile_reads                    204607                       # number of floating regfile reads
system.cpu.fp_regfile_writes                   305393                       # number of floating regfile writes
system.cpu.cc_regfile_reads                    398808                       # number of cc regfile reads
system.cpu.cc_regfile_writes                   770719                       # number of cc regfile writes
system.cpu.misc_regfile_reads                  752087                       # number of misc regfile reads
system.cpu.dcache.tags.pwrStateResidencyTicks::UNDEFINED    696531500                       # Cumulative time (in ticks) in various power states
system.cpu.dcache.tags.tagsinuse           169.953576                       # Cycle average of tags in use
system.cpu.dcache.tags.total_refs              506223                       # Total number of references to valid blocks.
system.cpu.dcache.tags.sampled_refs              4664                       # Sample count of references to valid blocks.
system.cpu.dcache.tags.avg_refs            108.538379                       # Average number of references to valid blocks.
system.cpu.dcache.tags.warmup_cycle            170000                       # Cycle when the warmup percentage was hit.
system.cpu.dcache.tags.occ_blocks::.cpu.data   169.953576                       # Average occupied blocks per requestor
system.cpu.dcache.tags.occ_percent::.cpu.data     0.663881                       # Average percentage of cache occupancy
system.cpu.dcache.tags.occ_percent::total     0.663881                       # Average percentage of cache occupancy
system.cpu.dcache.tags.occ_task_id_blocks::1024          196                       # Occupied blocks per task id
system.cpu.dcache.tags.age_task_id_blocks_1024::0           29                       # Occupied blocks per task id
system.cpu.dcache.tags.age_task_id_blocks_1024::1           18                       # Occupied blocks per task id
system.cpu.dcache.tags.age_task_id_blocks_1024::2          149                       # Occupied blocks per task id
system.cpu.dcache.tags.occ_task_id_percent::1024     0.765625                       # Percentage of cache occupancy per task id
system.cpu.dcache.tags.tag_accesses            513237                       # Number of tag accesses
system.cpu.dcache.tags.data_accesses           513237                       # Number of data accesses
system.cpu.dcache.pwrStateResidencyTicks::UNDEFINED    696531500                       # Cumulative time (in ticks) in various power states
system.cpu.dcache.ReadReq_hits::.cpu.data       422574                       # number of ReadReq hits
system.cpu.dcache.ReadReq_hits::total          422574                       # number of ReadReq hits
system.cpu.dcache.WriteReq_hits::.cpu.data        78985                       # number of WriteReq hits
system.cpu.dcache.WriteReq_hits::total          78985                       # number of WriteReq hits
system.cpu.dcache.demand_hits::.cpu.data       501559                       # number of demand (read+write) hits
system.cpu.dcache.demand_hits::total           501559                       # number of demand (read+write) hits
system.cpu.dcache.overall_hits::.cpu.data       501559                       # number of overall hits
system.cpu.dcache.overall_hits::total          501559                       # number of overall hits
system.cpu.dcache.ReadReq_misses::.cpu.data         6201                       # number of ReadReq misses
system.cpu.dcache.ReadReq_misses::total          6201                       # number of ReadReq misses
system.cpu.dcache.WriteReq_misses::.cpu.data          813                       # number of WriteReq misses
system.cpu.dcache.WriteReq_misses::total          813                       # number of WriteReq misses
system.cpu.dcache.demand_misses::.cpu.data         7014                       # number of demand (read+write) misses
system.cpu.dcache.demand_misses::total           7014                       # number of demand (read+write) misses
system.cpu.dcache.overall_misses::.cpu.data         7014                       # number of overall misses
system.cpu.dcache.overall_misses::total          7014                       # number of overall misses
system.cpu.dcache.ReadReq_miss_latency::.cpu.data    103211500                       # number of ReadReq miss cycles
system.cpu.dcache.ReadReq_miss_latency::total    103211500                       # number of ReadReq miss cycles
system.cpu.dcache.WriteReq_miss_latency::.cpu.data     37336000                       # number of WriteReq miss cycles
system.cpu.dcache.WriteReq_miss_latency::total     37336000                       # number of WriteReq miss cycles
system.cpu.dcache.demand_miss_latency::.cpu.data    140547500                       # number of demand (read+write) miss cycles
system.cpu.dcache.demand_miss_latency::total    140547500                       # number of demand (read+write) miss cycles
system.cpu.dcache.overall_miss_latency::.cpu.data    140547500                       # number of overall miss cycles
system.cpu.dcache.overall_miss_latency::total    140547500                       # number of overall miss cycles
system.cpu.dcache.ReadReq_accesses::.cpu.data       428775                       # number of ReadReq accesses(hits+misses)
system.cpu.dcache.ReadReq_accesses::total       428775                       # number of ReadReq accesses(hits+misses)
system.cpu.dcache.WriteReq_accesses::.cpu.data        79798                       # number of WriteReq accesses(hits+misses)
system.cpu.dcache.WriteReq_accesses::total        79798                       # number of WriteReq accesses(hits+misses)
system.cpu.dcache.demand_accesses::.cpu.data       508573                       # number of demand (read+write) accesses
system.cpu.dcache.demand_accesses::total       508573                       # number of demand (read+write) accesses
system.cpu.dcache.overall_accesses::.cpu.data       508573                       # number of overall (read+write) accesses
system.cpu.dcache.overall_accesses::total       508573                       # number of overall (read+write) accesses
system.cpu.dcache.ReadReq_miss_rate::.cpu.data     0.014462                       # miss rate for ReadReq accesses
system.cpu.dcache.ReadReq_miss_rate::total     0.014462                       # miss rate for ReadReq accesses
system.cpu.dcache.WriteReq_miss_rate::.cpu.data     0.010188                       # miss rate for WriteReq accesses
system.cpu.dcache.WriteReq_miss_rate::total     0.010188                       # miss rate for WriteReq accesses
system.cpu.dcache.demand_miss_rate::.cpu.data     0.013792                       # miss rate for demand accesses
system.cpu.dcache.demand_miss_rate::total     0.013792                       # miss rate for demand accesses
system.cpu.dcache.overall_miss_rate::.cpu.data     0.013792                       # miss rate for overall accesses
system.cpu.dcache.overall_miss_rate::total     0.013792                       # miss rate for overall accesses
system.cpu.dcache.ReadReq_avg_miss_latency::.cpu.data 16644.331559                       # average ReadReq miss latency
system.cpu.dcache.ReadReq_avg_miss_latency::total 16644.331559                       # average ReadReq miss latency
system.cpu.dcache.WriteReq_avg_miss_latency::.cpu.data 45923.739237                       # average WriteReq miss latency
system.cpu.dcache.WriteReq_avg_miss_latency::total 45923.739237                       # average WriteReq miss latency
system.cpu.dcache.demand_avg_miss_latency::.cpu.data 20038.138010                       # average overall miss latency
[...]
system.l3bus.snoop_fanout::overflows                0      0.00%    100.00% # Request fanout histogram
system.l3bus.snoop_fanout::min_value                0                       # Request fanout histogram
system.l3bus.snoop_fanout::max_value                0                       # Request fanout histogram
system.l3bus.snoop_fanout::total                  820                       # Request fanout histogram
system.l3bus.reqLayer0.occupancy               410000                       # Layer occupancy (ticks)
system.l3bus.reqLayer0.utilization                0.1                       # Layer utilization (%)
system.l3bus.respLayer0.occupancy             2050000                       # Layer occupancy (ticks)
system.l3bus.respLayer0.utilization               0.3                       # Layer utilization (%)
system.l3cache.tags.pwrStateResidencyTicks::UNDEFINED    696531500                       # Cumulative time (in ticks) in various power states
system.l3cache.tags.tagsinuse              702.946454                       # Cycle average of tags in use
system.l3cache.tags.total_refs                    820                       # Total number of references to valid blocks.
system.l3cache.tags.sampled_refs                  820                       # Sample count of references to valid blocks.
system.l3cache.tags.avg_refs                        1                       # Average number of references to valid blocks.
system.l3cache.tags.warmup_cycle                76000                       # Cycle when the warmup percentage was hit.
system.l3cache.tags.occ_blocks::.cpu.inst   386.693043                       # Average occupied blocks per requestor
system.l3cache.tags.occ_blocks::.cpu.data   316.253411                       # Average occupied blocks per requestor
system.l3cache.tags.occ_percent::.cpu.inst     0.023602                       # Average percentage of cache occupancy
system.l3cache.tags.occ_percent::.cpu.data     0.019303                       # Average percentage of cache occupancy
system.l3cache.tags.occ_percent::total       0.042904                       # Average percentage of cache occupancy
system.l3cache.tags.occ_task_id_blocks::1024          820                       # Occupied blocks per task id
system.l3cache.tags.age_task_id_blocks_1024::0           58                       # Occupied blocks per task id
system.l3cache.tags.age_task_id_blocks_1024::1            9                       # Occupied blocks per task id
system.l3cache.tags.age_task_id_blocks_1024::2          753                       # Occupied blocks per task id
system.l3cache.tags.occ_task_id_percent::1024     0.050049                       # Percentage of cache occupancy per task id
system.l3cache.tags.tag_accesses                13940                       # Number of tag accesses
system.l3cache.tags.data_accesses               13940                       # Number of data accesses
system.l3cache.pwrStateResidencyTicks::UNDEFINED    696531500                       # Cumulative time (in ticks) in various power states
system.l3cache.ReadExReq_misses::.cpu.data          268                       # number of ReadExReq misses
system.l3cache.ReadExReq_misses::total            268                       # number of ReadExReq misses
system.l3cache.ReadSharedReq_misses::.cpu.inst          440                       # number of ReadSharedReq misses
system.l3cache.ReadSharedReq_misses::.cpu.data          112                       # number of ReadSharedReq misses
system.l3cache.ReadSharedReq_misses::total          552                       # number of ReadSharedReq misses
system.l3cache.demand_misses::.cpu.inst           440                       # number of demand (read+write) misses
system.l3cache.demand_misses::.cpu.data           380                       # number of demand (read+write) misses
system.l3cache.demand_misses::total               820                       # number of demand (read+write) misses
system.l3cache.overall_misses::.cpu.inst          440                       # number of overall misses
system.l3cache.overall_misses::.cpu.data          380                       # number of overall misses
system.l3cache.overall_misses::total              820                       # number of overall misses
system.l3cache.ReadExReq_miss_latency::.cpu.data     27252000                       # number of ReadExReq miss cycles
system.l3cache.ReadExReq_miss_latency::total     27252000                       # number of ReadExReq miss cycles
system.l3cache.ReadSharedReq_miss_latency::.cpu.inst     31776500                       # number of ReadSharedReq miss cycles
system.l3cache.ReadSharedReq_miss_latency::.cpu.data      8667000                       # number of ReadSharedReq miss cycles
system.l3cache.ReadSharedReq_miss_latency::total     40443500                       # number of ReadSharedReq miss cycles
system.l3cache.demand_miss_latency::.cpu.inst     31776500                       # number of demand (read+write) miss cycles
system.l3cache.demand_miss_latency::.cpu.data     35919000                       # number of demand (read+write) miss cycles
system.l3cache.demand_miss_latency::total     67695500                       # number of demand (read+write) miss cycles
system.l3cache.overall_miss_latency::.cpu.inst     31776500                       # number of overall miss cycles
system.l3cache.overall_miss_latency::.cpu.data     35919000                       # number of overall miss cycles
system.l3cache.overall_miss_latency::total     67695500                       # number of overall miss cycles
system.l3cache.ReadExReq_accesses::.cpu.data          268                       # number of ReadExReq accesses(hits+misses)
system.l3cache.ReadExReq_accesses::total          268                       # number of ReadExReq accesses(hits+misses)
system.l3cache.ReadSharedReq_accesses::.cpu.inst          440                       # number of ReadSharedReq accesses(hits+misses)
system.l3cache.ReadSharedReq_accesses::.cpu.data          112                       # number of ReadSharedReq accesses(hits+misses)
system.l3cache.ReadSharedReq_accesses::total          552                       # number of ReadSharedReq accesses(hits+misses)
system.l3cache.demand_accesses::.cpu.inst          440                       # number of demand (read+write) accesses
system.l3cache.demand_accesses::.cpu.data          380                       # number of demand (read+write) accesses
system.l3cache.demand_accesses::total             820                       # number of demand (read+write) accesses
system.l3cache.overall_accesses::.cpu.inst          440                       # number of overall (read+write) accesses
system.l3cache.overall_accesses::.cpu.data          380                       # number of overall (read+write) accesses
system.l3cache.overall_accesses::total            820                       # number of overall (read+write) accesses
system.l3cache.ReadExReq_miss_rate::.cpu.data            1                       # miss rate for ReadExReq accesses
system.l3cache.ReadExReq_miss_rate::total            1                       # miss rate for ReadExReq accesses
system.l3cache.ReadSharedReq_miss_rate::.cpu.inst            1                       # miss rate for ReadSharedReq accesses
system.l3cache.ReadSharedReq_miss_rate::.cpu.data            1                       # miss rate for ReadSharedReq accesses
system.l3cache.ReadSharedReq_miss_rate::total            1                       # miss rate for ReadSharedReq accesses
system.l3cache.demand_miss_rate::.cpu.inst            1                       # miss rate for demand accesses
system.l3cache.demand_miss_rate::.cpu.data            1                       # miss rate for demand accesses
system.l3cache.demand_miss_rate::total              1                       # miss rate for demand accesses
system.l3cache.overall_miss_rate::.cpu.inst            1                       # miss rate for overall accesses
system.l3cache.overall_miss_rate::.cpu.data            1                       # miss rate for overall accesses
system.l3cache.overall_miss_rate::total             1                       # miss rate for overall accesses
system.l3cache.ReadExReq_avg_miss_latency::.cpu.data 101686.567164                       # average ReadExReq miss latency
system.l3cache.ReadExReq_avg_miss_latency::total 101686.567164                       # average ReadExReq miss latency
system.l3cache.ReadSharedReq_avg_miss_latency::.cpu.inst 72219.318182                       # average ReadSharedReq miss latency
system.l3cache.ReadSharedReq_avg_miss_latency::.cpu.data 77383.928571                       # average ReadSharedReq miss latency
system.l3cache.ReadSharedReq_avg_miss_latency::total 73267.210145                       # average ReadSharedReq miss latency
system.l3cache.demand_avg_miss_latency::.cpu.inst 72219.318182                       # average overall miss latency
system.l3cache.demand_avg_miss_latency::.cpu.data 94523.684211                       # average overall miss latency
system.l3cache.demand_avg_miss_latency::total 82555.487805                       # average overall miss latency
system.l3cache.overall_avg_miss_latency::.cpu.inst 72219.318182                       # average overall miss latency
system.l3cache.overall_avg_miss_latency::.cpu.data 94523.684211                       # average overall miss latency
system.l3cache.overall_avg_miss_latency::total 82555.487805                       # average overall miss latency
system.l3cache.blocked_cycles::no_mshrs             0                       # number of cycles access was blocked
system.l3cache.blocked_cycles::no_targets            0                       # number of cycles access was blocked
system.l3cache.blocked::no_mshrs                    0                       # number of cycles access was blocked
system.l3cache.blocked::no_targets                  0                       # number of cycles access was blocked
system.l3cache.avg_blocked_cycles::no_mshrs          nan                       # average number of cycles each access was blocked
system.l3cache.avg_blocked_cycles::no_targets          nan                       # average number of cycles each access was blocked
system.l3cache.ReadExReq_mshr_misses::.cpu.data          268                       # number of ReadExReq MSHR misses
system.l3cache.ReadExReq_mshr_misses::total          268                       # number of ReadExReq MSHR misses
system.l3cache.ReadSharedReq_mshr_misses::.cpu.inst          440                       # number of ReadSharedReq MSHR misses
system.l3cache.ReadSharedReq_mshr_misses::.cpu.data          112                       # number of ReadSharedReq MSHR misses
system.l3cache.ReadSharedReq_mshr_misses::total          552                       # number of ReadSharedReq MSHR misses
system.l3cache.demand_mshr_misses::.cpu.inst          440                       # number of demand (read+write) MSHR misses
system.l3cache.demand_mshr_misses::.cpu.data          380                       # number of demand (read+write) MSHR misses
system.l3cache.demand_mshr_misses::total          820                       # number of demand (read+write) MSHR misses
system.l3cache.overall_mshr_misses::.cpu.inst          440                       # number of overall MSHR misses
system.l3cache.overall_mshr_misses::.cpu.data          380                       # number of overall MSHR misses
system.l3cache.overall_mshr_misses::total          820                       # number of overall MSHR misses
system.l3cache.ReadExReq_mshr_miss_latency::.cpu.data     26716000                       # number of ReadExReq MSHR miss cycles
system.l3cache.ReadExReq_mshr_miss_latency::total     26716000                       # number of ReadExReq MSHR miss cycles
system.l3cache.ReadSharedReq_mshr_miss_latency::.cpu.inst     30896500                       # number of ReadSharedReq MSHR miss cycles
system.l3cache.ReadSharedReq_mshr_miss_latency::.cpu.data      8443000                       # number of ReadSharedReq MSHR miss cycles
system.l3cache.ReadSharedReq_mshr_miss_latency::total     39339500                       # number of ReadSharedReq MSHR miss cycles
system.l3cache.demand_mshr_miss_latency::.cpu.inst     30896500                       # number of demand (read+write) MSHR miss cycles
system.l3cache.demand_mshr_miss_latency::.cpu.data     35159000                       # number of demand (read+write) MSHR miss cycles
system.l3cache.demand_mshr_miss_latency::total     66055500                       # number of demand (read+write) MSHR miss cycles
system.l3cache.overall_mshr_miss_latency::.cpu.inst     30896500                       # number of overall MSHR miss cycles
system.l3cache.overall_mshr_miss_latency::.cpu.data     35159000                       # number of overall MSHR miss cycles
system.l3cache.overall_mshr_miss_latency::total     66055500                       # number of overall MSHR miss cycles
system.l3cache.ReadExReq_mshr_miss_rate::.cpu.data            1                       # mshr miss rate for ReadExReq accesses
system.l3cache.ReadExReq_mshr_miss_rate::total            1                       # mshr miss rate for ReadExReq accesses
system.l3cache.ReadSharedReq_mshr_miss_rate::.cpu.inst            1                       # mshr miss rate for ReadSharedReq accesses
system.l3cache.ReadSharedReq_mshr_miss_rate::.cpu.data            1                       # mshr miss rate for ReadSharedReq accesses
system.l3cache.ReadSharedReq_mshr_miss_rate::total            1                       # mshr miss rate for ReadSharedReq accesses
system.l3cache.demand_mshr_miss_rate::.cpu.inst            1                       # mshr miss rate for demand accesses
system.l3cache.demand_mshr_miss_rate::.cpu.data            1                       # mshr miss rate for demand accesses
system.l3cache.demand_mshr_miss_rate::total            1                       # mshr miss rate for demand accesses
system.l3cache.overall_mshr_miss_rate::.cpu.inst            1                       # mshr miss rate for overall accesses
system.l3cache.overall_mshr_miss_rate::.cpu.data            1                       # mshr miss rate for overall accesses
system.l3cache.overall_mshr_miss_rate::total            1                       # mshr miss rate for overall accesses
system.l3cache.ReadExReq_avg_mshr_miss_latency::.cpu.data 99686.567164                       # average ReadExReq mshr miss latency
system.l3cache.ReadExReq_avg_mshr_miss_latency::total 99686.567164                       # average ReadExReq mshr miss latency
system.l3cache.ReadSharedReq_avg_mshr_miss_latency::.cpu.inst 70219.318182                       # average ReadSharedReq mshr miss latency
system.l3cache.ReadSharedReq_avg_mshr_miss_latency::.cpu.data 75383.928571                       # average ReadSharedReq mshr miss latency
system.l3cache.ReadSharedReq_avg_mshr_miss_latency::total 71267.210145                       # average ReadSharedReq mshr miss latency
system.l3cache.demand_avg_mshr_miss_latency::.cpu.inst 70219.318182                       # average overall mshr miss latency
system.l3cache.demand_avg_mshr_miss_latency::.cpu.data 92523.684211                       # average overall mshr miss latency
system.l3cache.demand_avg_mshr_miss_latency::total 80555.487805                       # average overall mshr miss latency
system.l3cache.overall_avg_mshr_miss_latency::.cpu.inst 70219.318182                       # average overall mshr miss latency
system.l3cache.overall_avg_mshr_miss_latency::.cpu.data 92523.684211                       # average overall mshr miss latency
system.l3cache.overall_avg_mshr_miss_latency::total 80555.487805                       # average overall mshr miss latency
system.l3cache.replacements                         0                       # number of replacements
system.membus.snoop_filter.tot_requests           820                       # Total number of requests made to the snoop filter.
system.membus.snoop_filter.hit_single_requests            0                       # Number of requests hitting in the snoop filter with a single holder of the requested data.
system.membus.snoop_filter.hit_multi_requests            0                       # Number of requests hitting in the snoop filter with multiple (>1) holders of the requested data.
system.membus.snoop_filter.tot_snoops               0                       # Total number of snoops made to the snoop filter.
system.membus.snoop_filter.hit_single_snoops            0                       # Number of snoops hitting in the snoop filter with a single holder of the requested data.
system.membus.snoop_filter.hit_multi_snoops            0                       # Number of snoops hitting in the snoop filter with multiple (>1) holders of the requested data.
system.membus.pwrStateResidencyTicks::UNDEFINED    696531500                       # Cumulative time (in ticks) in various power states
system.membus.trans_dist::ReadResp                552                       # Transaction distribution
system.membus.trans_dist::ReadExReq               268                       # Transaction distribution
system.membus.trans_dist::ReadExResp              268                       # Transaction distribution
system.membus.trans_dist::ReadSharedReq           552                       # Transaction distribution
system.membus.pkt_count_system.l3cache.mem_side::system.mem_ctrl.port         1640                       # Packet count per connected master and slave (bytes)
system.membus.pkt_count_system.l3cache.mem_side::total         1640                       # Packet count per connected master and slave (bytes)
system.membus.pkt_count::total                   1640                       # Packet count per connected master and slave (bytes)
system.membus.pkt_size_system.l3cache.mem_side::system.mem_ctrl.port        52480                       # Cumulative packet size per connected master and slave (bytes)
system.membus.pkt_size_system.l3cache.mem_side::total        52480                       # Cumulative packet size per connected master and slave (bytes)
system.membus.pkt_size::total                   52480                       # Cumulative packet size per connected master and slave (bytes)
system.membus.snoops                                0                       # Total snoops (count)
system.membus.snoopTraffic                          0                       # Total snoop traffic (bytes)
system.membus.snoop_fanout::samples               820                       # Request fanout histogram
system.membus.snoop_fanout::mean                    0                       # Request fanout histogram
system.membus.snoop_fanout::stdev                   0                       # Request fanout histogram
system.membus.snoop_fanout::underflows              0      0.00%      0.00% # Request fanout histogram
system.membus.snoop_fanout::0                     820    100.00%    100.00% # Request fanout histogram
system.membus.snoop_fanout::1                       0      0.00%    100.00% # Request fanout histogram
system.membus.snoop_fanout::overflows               0      0.00%    100.00% # Request fanout histogram
system.membus.snoop_fanout::min_value               0                       # Request fanout histogram
system.membus.snoop_fanout::max_value               0                       # Request fanout histogram
system.membus.snoop_fanout::total                 820                       # Request fanout histogram
system.membus.reqLayer0.occupancy              410000                       # Layer occupancy (ticks)
system.membus.reqLayer0.utilization               0.1                       # Layer utilization (%)
system.membus.respLayer0.occupancy            2218000                       # Layer occupancy (ticks)
system.membus.respLayer0.utilization              0.3                       # Layer utilization (%)

---------- End Simulation Statistics   ----------
