
---------- Begin Simulation Statistics ----------
sim_seconds                                  0.002385                       # Number of seconds simulated
sim_ticks                                  2384580000                       # Number of ticks simulated
final_tick                                 2384580000                       # Number of ticks from beginning of simulation (restored from checkpoints and never reset)
sim_freq                                 1000000000000                       # Frequency of simulated ticks
host_inst_rate                                 221795                       # Simulator instruction rate (inst/s)
host_op_rate                                   336205                       # Simulator op (including micro ops) rate (op/s)
host_tick_rate                              106639690                       # Simulator tick rate (ticks/s)
host_mem_usage                                 647828                       # Number of bytes of host memory used
host_seconds                                    22.36                       # Real time elapsed on the host
sim_insts                                     4959569                       # Number of instructions simulated
sim_ops                                       7517907                       # Number of ops (including micro ops) simulated
system.clk_domain.voltage_domain.voltage            1                       # Voltage in Volts
system.clk_domain.clock                           500                       # Clock period in ticks
system.mem_ctrl.pwrStateResidencyTicks::UNDEFINED   2384580000                       # Cumulative time (in ticks) in various power states
system.mem_ctrl.bytes_read::.cpu.inst           28160                       # Number of bytes read from this memory
system.mem_ctrl.bytes_read::.cpu.data           62720                       # Number of bytes read from this memory
system.mem_ctrl.bytes_read::total               90880                       # Number of bytes read from this memory
system.mem_ctrl.bytes_inst_read::.cpu.inst        28160                       # Number of instructions bytes read from this memory
system.mem_ctrl.bytes_inst_read::total          28160                       # Number of instructions bytes read from this memory
system.mem_ctrl.num_reads::.cpu.inst              440                       # Number of read requests responded to by this memory
system.mem_ctrl.num_reads::.cpu.data              980                       # Number of read requests responded to by this memory
system.mem_ctrl.num_reads::total                 1420                       # Number of read requests responded to by this memory
system.mem_ctrl.bw_read::.cpu.inst           11809207                       # Total read bandwidth from this memory (bytes/s)
system.mem_ctrl.bw_read::.cpu.data           26302326                       # Total read bandwidth from this memory (bytes/s)
system.mem_ctrl.bw_read::total               38111533                       # Total read bandwidth from this memory (bytes/s)
system.mem_ctrl.bw_inst_read::.cpu.inst      11809207                       # Instruction read bandwidth from this memory (bytes/s)
system.mem_ctrl.bw_inst_read::total          11809207                       # Instruction read bandwidth from this memory (bytes/s)
system.mem_ctrl.bw_total::.cpu.inst          11809207                       # Total bandwidth to/from this memory (bytes/s)
system.mem_ctrl.bw_total::.cpu.data          26302326                       # Total bandwidth to/from this memory (bytes/s)
system.mem_ctrl.bw_total::total              38111533                       # Total bandwidth to/from this memory (bytes/s)
system.mem_ctrl.avgPriority_.cpu.inst::samples       440.00                       # Average QoS priority value for accepted requests
system.mem_ctrl.avgPriority_.cpu.data::samples       980.00                       # Average QoS priority value for accepted requests
system.mem_ctrl.priorityMinLatency       0.000000018750                       # per QoS priority minimum request to response latency (s)
system.mem_ctrl.priorityMaxLatency       0.000001099750                       # per QoS priority maximum request to response latency (s)
system.mem_ctrl.numReadWriteTurnArounds             0                       # Number of turnarounds from READ to WRITE
system.mem_ctrl.numWriteReadTurnArounds             0                       # Number of turnarounds from WRITE to READ
system.mem_ctrl.numStayReadState                 3131                       # Number of times bus staying in READ state
system.mem_ctrl.numStayWriteState                   0                       # Number of times bus staying in WRITE state
system.mem_ctrl.readReqs                         1420                       # Number of read requests accepted
system.mem_ctrl.writeReqs                           0                       # Number of write requests accepted
system.mem_ctrl.readBursts                       1420                       # Number of DRAM read bursts, including those serviced by the write queue
system.mem_ctrl.writeBursts                         0                       # Number of DRAM write bursts, including those merged in the write queue
system.mem_ctrl.bytesReadDRAM                   90880                       # Total number of bytes read from DRAM
system.mem_ctrl.bytesReadWrQ                        0                       # Total number of bytes read from write queue
system.mem_ctrl.bytesWritten                        0                       # Total number of bytes written to DRAM
system.mem_ctrl.bytesReadSys                    90880                       # Total read bytes from the system interface side
system.mem_ctrl.bytesWrittenSys                     0                       # Total written bytes from the system interface side
system.mem_ctrl.servicedByWrQ                       0                       # Number of DRAM read bursts serviced by the write queue
system.mem_ctrl.mergedWrBursts                      0                       # Number of DRAM write bursts merged with an existing one
system.mem_ctrl.neitherReadNorWriteReqs             0                       # Number of requests that are neither read nor write
system.mem_ctrl.perBankRdBursts::0                145                       # Per bank write bursts
system.mem_ctrl.perBankRdBursts::1                 81                       # Per bank write bursts
system.mem_ctrl.perBankRdBursts::2                150                       # Per bank write bursts
system.mem_ctrl.perBankRdBursts::3                137                       # Per bank write bursts
system.mem_ctrl.perBankRdBursts::4                130                       # Per bank write bursts
system.mem_ctrl.perBankRdBursts::5                137                       # Per bank write bursts
system.mem_ctrl.perBankRdBursts::6                193                       # Per bank write bursts
system.mem_ctrl.perBankRdBursts::7                 64                       # Per bank write bursts
system.mem_ctrl.perBankRdBursts::8                  1                       # Per bank write bursts
system.mem_ctrl.perBankRdBursts::9                  7                       # Per bank write bursts
system.mem_ctrl.perBankRdBursts::10                26                       # Per bank write bursts
system.mem_ctrl.perBankRdBursts::11                11                       # Per bank write bursts
system.mem_ctrl.perBankRdBursts::12                46                       # Per bank write bursts
system.mem_ctrl.perBankRdBursts::13                84                       # Per bank write bursts
system.mem_ctrl.perBankRdBursts::14               113                       # Per bank write bursts
system.mem_ctrl.perBankRdBursts::15                95                       # Per bank write bursts
system.mem_ctrl.perBankWrBursts::0                  0                       # Per bank write bursts
system.mem_ctrl.perBankWrBursts::1                  0                       # Per bank write bursts
system.mem_ctrl.perBankWrBursts::2                  0                       # Per bank write bursts
system.mem_ctrl.perBankWrBursts::3                  0                       # Per bank write bursts
system.mem_ctrl.perBankWrBursts::4                  0                       # Per bank write bursts
system.mem_ctrl.perBankWrBursts::5                  0                       # Per bank write bursts
system.mem_ctrl.perBankWrBursts::6                  0                       # Per bank write bursts
system.mem_ctrl.perBankWrBursts::7                  0                       # Per bank write bursts
system.mem_ctrl.perBankWrBursts::8                  0                       # Per bank write bursts
system.mem_ctrl.perBankWrBursts::9                  0                       # Per bank write bursts
system.mem_ctrl.perBankWrBursts::10                 0                       # Per bank write bursts
system.mem_ctrl.perBankWrBursts::11                 0                       # Per bank write bursts
system.mem_ctrl.perBankWrBursts::12                 0                       # Per bank write bursts
system.mem_ctrl.perBankWrBursts::13                 0                       # Per bank write bursts
system.mem_ctrl.perBankWrBursts::14                 0                       # Per bank write bursts
system.mem_ctrl.perBankWrBursts::15                 0                       # Per bank write bursts
system.mem_ctrl.numRdRetry                          0                       # Number of times read queue was full causing retry
system.mem_ctrl.numWrRetry                          0                       # Number of times write queue was full causing retry
system.mem_ctrl.totGap                     2384496500                       # Total gap between requests
system.mem_ctrl.readPktSize::0                      0                       # Read request sizes (log2)
system.mem_ctrl.readPktSize::1                      0                       # Read request sizes (log2)
system.mem_ctrl.readPktSize::2                      0                       # Read request sizes (log2)
system.mem_ctrl.readPktSize::3                      0                       # Read request sizes (log2)
system.mem_ctrl.readPktSize::4                      0                       # Read request sizes (log2)
system.mem_ctrl.readPktSize::5                      0                       # Read request sizes (log2)
system.mem_ctrl.readPktSize::6                   1420                       # Read request sizes (log2)
system.mem_ctrl.writePktSize::0                     0                       # Write request sizes (log2)
system.mem_ctrl.writePktSize::1                     0                       # Write request sizes (log2)
system.mem_ctrl.writePktSize::2                     0                       # Write request sizes (log2)
system.mem_ctrl.writePktSize::3                     0                       # Write request sizes (log2)
system.mem_ctrl.writePktSize::4                     0                       # Write request sizes (log2)
system.mem_ctrl.writePktSize::5                     0                       # Write request sizes (log2)
system.mem_ctrl.writePktSize::6                     0                       # Write request sizes (log2)
system.mem_ctrl.rdQLenPdf::0                     1180                       # What read queue length does an incoming req see
system.mem_ctrl.rdQLenPdf::1                      191                       # What read queue length does an incoming req see
system.mem_ctrl.rdQLenPdf::2                       41                       # What read queue length does an incoming req see
system.mem_ctrl.rdQLenPdf::3                        6                       # What read queue length does an incoming req see
system.mem_ctrl.rdQLenPdf::4                        2                       # What read queue length does an incoming req see
system.mem_ctrl.rdQLenPdf::5                        0                       # What read queue length does an incoming req see
system.mem_ctrl.rdQLenPdf::6                        0                       # What read queue length does an incoming req see
system.mem_ctrl.rdQLenPdf::7                        0                       # What read queue length does an incoming req see
system.mem_ctrl.rdQLenPdf::8                        0                       # What read queue length does an incoming req see
system.mem_ctrl.rdQLenPdf::9                        0                       # What read queue length does an incoming req see
system.mem_ctrl.rdQLenPdf::10                       0                       # What read queue length does an incoming req see
system.mem_ctrl.rdQLenPdf::11                       0                       # What read queue length does an incoming req see
system.mem_ctrl.rdQLenPdf::12                       0                       # What read queue length does an incoming req see
system.mem_ctrl.rdQLenPdf::13                       0                       # What read queue length does an incoming req see
system.mem_ctrl.rdQLenPdf::14                       0                       # What read queue length does an incoming req see
system.mem_ctrl.rdQLenPdf::15                       0                       # What read queue length does an incoming req see
system.mem_ctrl.rdQLenPdf::16                       0                       # What read queue length does an incoming req see
system.mem_ctrl.rdQLenPdf::17                       0                       # What read queue length does an incoming req see
system.mem_ctrl.rdQLenPdf::18                       0                       # What read queue length does an incoming req see
system.mem_ctrl.rdQLenPdf::19                       0                       # What read queue length does an incoming req see
system.mem_ctrl.rdQLenPdf::20                       0                       # What read queue length does an incoming req see
system.mem_ctrl.rdQLenPdf::21                       0                       # What read queue length does an incoming req see
system.mem_ctrl.rdQLenPdf::22                       0                       # What read queue length does an incoming req see
system.mem_ctrl.rdQLenPdf::23                       0                       # What read queue length does an incoming req see
system.mem_ctrl.rdQLenPdf::24                       0                       # What read queue length does an incoming req see
system.mem_ctrl.rdQLenPdf::25                       0                       # What read queue length does an incoming req see
system.mem_ctrl.rdQLenPdf::26                       0                       # What read queue length does an incoming req see
system.mem_ctrl.rdQLenPdf::27                       0                       # What read queue length does an incoming req see
system.mem_ctrl.rdQLenPdf::28                       0                       # What read queue length does an incoming req see
system.mem_ctrl.rdQLenPdf::29                       0                       # What read queue length does an incoming req see
system.mem_ctrl.rdQLenPdf::30                       0                       # What read queue length does an incoming req see
system.mem_ctrl.rdQLenPdf::31                       0                       # What read queue length does an incoming req see
system.mem_ctrl.wrQLenPdf::0                        0                       # What write queue length does an incoming req see
system.mem_ctrl.wrQLenPdf::1                        0                       # What write queue length does an incoming req see
system.mem_ctrl.wrQLenPdf::2                        0                       # What write queue length does an incoming req see
system.mem_ctrl.wrQLenPdf::3                        0                       # What write queue length does an incoming req see
system.mem_ctrl.wrQLenPdf::4                        0                       # What write queue length does an incoming req see
system.mem_ctrl.wrQLenPdf::5                        0                       # What write queue length does an incoming req see
system.mem_ctrl.wrQLenPdf::6                        0                       # What write queue length does an incoming req see
system.mem_ctrl.wrQLenPdf::7                        0                       # What write queue length does an incoming req see
system.mem_ctrl.wrQLenPdf::8                        0                       # What write queue length does an incoming req see
system.mem_ctrl.wrQLenPdf::9                        0                       # What write queue length does an incoming req see
system.mem_ctrl.wrQLenPdf::10                       0                       # What write queue length does an incoming req see
system.mem_ctrl.wrQLenPdf::11                       0                       # What write queue length does an incoming req see
system.mem_ctrl.wrQLenPdf::12                       0                       # What write queue length does an incoming req see
system.mem_ctrl.wrQLenPdf::13                       0                       # What write queue length does an incoming req see
system.mem_ctrl.wrQLenPdf::14                       0                       # What write queue length does an incoming req see
system.mem_ctrl.wrQLenPdf::15                       0                       # What write queue length does an incoming req see
system.mem_ctrl.wrQLenPdf::16                       0                       # What write queue length does an incoming req see
system.mem_ctrl.wrQLenPdf::17                       0                       # What write queue length does an incoming req see
system.mem_ctrl.wrQLenPdf::18                       0                       # What write queue length does an incoming req see
system.mem_ctrl.wrQLenPdf::19                       0                       # What write queue length does an incoming req see
system.mem_ctrl.wrQLenPdf::20                       0                       # What write queue length does an incoming req see
system.mem_ctrl.wrQLenPdf::21                       0                       # What write queue length does an incoming req see
system.mem_ctrl.wrQLenPdf::22                       0                       # What write queue length does an incoming req see
system.mem_ctrl.wrQLenPdf::23                       0                       # What write queue length does an incoming req see
system.mem_ctrl.wrQLenPdf::24                       0                       # What write queue length does an incoming req see
system.mem_ctrl.wrQLenPdf::25                       0                       # What write queue length does an incoming req see
system.mem_ctrl.wrQLenPdf::26                       0                       # What write queue length does an incoming req see
system.mem_ctrl.wrQLenPdf::27                       0                       # What write queue length does an incoming req see
system.mem_ctrl.wrQLenPdf::28                       0                       # What write queue length does an incoming req see
system.mem_ctrl.wrQLenPdf::29                       0                       # What write queue length does an incoming req see
system.mem_ctrl.wrQLenPdf::30                       0                       # What write queue length does an incoming req see
system.mem_ctrl.wrQLenPdf::31                       0                       # What write queue length does an incoming req see
system.mem_ctrl.wrQLenPdf::32                       0                       # What write queue length does an incoming req see
system.mem_ctrl.wrQLenPdf::33                       0                       # What write queue length does an incoming req see
system.mem_ctrl.wrQLenPdf::34                       0                       # What write queue length does an incoming req see
system.mem_ctrl.wrQLenPdf::35                       0                       # What write queue length does an incoming req see
system.mem_ctrl.wrQLenPdf::36                       0                       # What write queue length does an incoming req see
system.mem_ctrl.wrQLenPdf::37                       0                       # What write queue length does an incoming req see
system.mem_ctrl.wrQLenPdf::38                       0                       # What write queue length does an incoming req see
system.mem_ctrl.wrQLenPdf::39                       0                       # What write queue length does an incoming req see
system.mem_ctrl.wrQLenPdf::40                       0                       # What write queue length does an incoming req see
system.mem_ctrl.wrQLenPdf::41                       0                       # What write queue length does an incoming req see
system.mem_ctrl.wrQLenPdf::42                       0                       # What write queue length does an incoming req see
system.mem_ctrl.wrQLenPdf::43                       0                       # What write queue length does an incoming req see
system.mem_ctrl.wrQLenPdf::44                       0                       # What write queue length does an incoming req see
system.mem_ctrl.wrQLenPdf::45                       0                       # What write queue length does an incoming req see
system.mem_ctrl.wrQLenPdf::46                       0                       # What write queue length does an incoming req see
system.mem_ctrl.wrQLenPdf::47                       0                       # What write queue length does an incoming req see
system.mem_ctrl.wrQLenPdf::48                       0                       # What write queue length does an incoming req see
system.mem_ctrl.wrQLenPdf::49                       0                       # What write queue length does an incoming req see
system.mem_ctrl.wrQLenPdf::50                       0                       # What write queue length does an incoming req see
system.mem_ctrl.wrQLenPdf::51                       0                       # What write queue length does an incoming req see
system.mem_ctrl.wrQLenPdf::52                       0                       # What write queue length does an incoming req see
system.mem_ctrl.wrQLenPdf::53                       0                       # What write queue length does an incoming req see
system.mem_ctrl.wrQLenPdf::54                       0                       # What write queue length does an incoming req see
system.mem_ctrl.wrQLenPdf::55                       0                       # What write queue length does an incoming req see
system.mem_ctrl.wrQLenPdf::56                       0                       # What write queue length does an incoming req see
system.mem_ctrl.wrQLenPdf::57                       0                       # What write queue length does an incoming req see
system.mem_ctrl.wrQLenPdf::58                       0                       # What write queue length does an incoming req see
system.mem_ctrl.wrQLenPdf::59                       0                       # What write queue length does an incoming req see
system.mem_ctrl.wrQLenPdf::60                       0                       # What write queue length does an incoming req see
system.mem_ctrl.wrQLenPdf::61                       0                       # What write queue length does an incoming req see
system.mem_ctrl.wrQLenPdf::62                       0                       # What write queue length does an incoming req see
system.mem_ctrl.wrQLenPdf::63                       0                       # What write queue length does an incoming req see
system.mem_ctrl.bytesPerActivate::samples          388                       # Bytes accessed per row activation
system.mem_ctrl.bytesPerActivate::mean     229.773196                       # Bytes accessed per row activation
system.mem_ctrl.bytesPerActivate::gmean    129.421050                       # Bytes accessed per row activation
system.mem_ctrl.bytesPerActivate::stdev    273.390560                       # Bytes accessed per row activation
system.mem_ctrl.bytesPerActivate::0-127           241     62.11%     62.11% # Bytes accessed per row activation
system.mem_ctrl.bytesPerActivate::128-255           36      9.28%     71.39% # Bytes accessed per row activation
system.mem_ctrl.bytesPerActivate::256-383           18      4.64%     76.03% # Bytes accessed per row activation
system.mem_ctrl.bytesPerActivate::384-511           15      3.87%     79.90% # Bytes accessed per row activation
system.mem_ctrl.bytesPerActivate::512-639            7      1.80%     81.70% # Bytes accessed per row activation
system.mem_ctrl.bytesPerActivate::640-767           51     13.14%     94.85% # Bytes accessed per row activation
system.mem_ctrl.bytesPerActivate::768-895            3      0.77%     95.62% # Bytes accessed per row activation
system.mem_ctrl.bytesPerActivate::896-1023            3      0.77%     96.39% # Bytes accessed per row activation
system.mem_ctrl.bytesPerActivate::1024-1151           14      3.61%    100.00% # Bytes accessed per row activation
system.mem_ctrl.bytesPerActivate::total           388                       # Bytes accessed per row activation
system.mem_ctrl.masterReadBytes::.cpu.inst        28160                       # Per-master bytes read from memory
system.mem_ctrl.masterReadBytes::.cpu.data        62720                       # Per-master bytes read from memory
system.mem_ctrl.masterReadRate::.cpu.inst 11809207.491466002539                       # Per-master bytes read from memory rate (Bytes/sec)
system.mem_ctrl.masterReadRate::.cpu.data 26302325.776447005570                       # Per-master bytes read from memory rate (Bytes/sec)
system.mem_ctrl.masterReadAccesses::.cpu.inst          440                       # Per-master read serviced memory accesses
system.mem_ctrl.masterReadAccesses::.cpu.data          980                       # Per-master read serviced memory accesses
system.mem_ctrl.masterReadTotalLat::.cpu.inst     16588250                       # Per-master read total memory access latency
system.mem_ctrl.masterReadTotalLat::.cpu.data     58466500                       # Per-master read total memory access latency
system.mem_ctrl.masterReadAvgLat::.cpu.inst     37700.57                       # Per-master read average memory access latency
system.mem_ctrl.masterReadAvgLat::.cpu.data     59659.69                       # Per-master read average memory access latency
system.mem_ctrl.totQLat                      48429750                       # Total ticks spent queuing
system.mem_ctrl.totMemAccLat                 75054750                       # Total ticks spent from burst creation until serviced by the DRAM
system.mem_ctrl.totBusLat                     7100000                       # Total ticks spent in databus transfers
system.mem_ctrl.avgQLat                      34105.46                       # Average queueing delay per DRAM burst
system.mem_ctrl.avgBusLat                     5000.00                       # Average bus latency per DRAM burst
system.mem_ctrl.avgMemAccLat                 52855.46                       # Average memory access latency per DRAM burst
system.mem_ctrl.avgRdBW                         38.11                       # Average DRAM read bandwidth in MiByte/s
system.mem_ctrl.avgWrBW                          0.00                       # Average achieved write bandwidth in MiByte/s
system.mem_ctrl.avgRdBWSys                      38.11                       # Average system read bandwidth in MiByte/s
system.mem_ctrl.avgWrBWSys                       0.00                       # Average system write bandwidth in MiByte/s
system.mem_ctrl.peakBW                       12800.00                       # Theoretical peak bandwidth in MiByte/s
system.mem_ctrl.busUtil                          0.30                       # Data bus utilization in percentage
system.mem_ctrl.busUtilRead                      0.30                       # Data bus utilization in percentage for reads
system.mem_ctrl.busUtilWrite                     0.00                       # Data bus utilization in percentage for writes
system.mem_ctrl.avgRdQLen                        1.01                       # Average read queue length when enqueuing
system.mem_ctrl.avgWrQLen                        0.00                       # Average write queue length when enqueuing
system.mem_ctrl.readRowHits                      1022                       # Number of row buffer hits during reads
system.mem_ctrl.writeRowHits                        0                       # Number of row buffer hits during writes
system.mem_ctrl.readRowHitRate                  71.97                       # Row buffer hit rate for reads
system.mem_ctrl.writeRowHitRate                   nan                       # Row buffer hit rate for writes
system.mem_ctrl.avgGap                     1679222.89                       # Average gap between requests
system.mem_ctrl.pageHitRate                     71.97                       # Row buffer hit rate, read and write combined
system.mem_ctrl_0.actEnergy                   2199120                       # Energy for activate commands per rank (pJ)
system.mem_ctrl_0.preEnergy                   1153680                       # Energy for precharge commands per rank (pJ)
system.mem_ctrl_0.readEnergy                  7404180                       # Energy for read commands per rank (pJ)
system.mem_ctrl_0.writeEnergy                       0                       # Energy for write commands per rank (pJ)
system.mem_ctrl_0.refreshEnergy          181318800.000000                       # Energy for refresh commands per rank (pJ)
system.mem_ctrl_0.actBackEnergy              46656210                       # Energy for active background per rank (pJ)
system.mem_ctrl_0.preBackEnergy               8620320                       # Energy for precharge background per rank (pJ)
system.mem_ctrl_0.actPowerDownEnergy        550335570                       # Energy for active power-down per rank (pJ)
system.mem_ctrl_0.prePowerDownEnergy        377213760                       # Energy for precharge power-down per rank (pJ)
system.mem_ctrl_0.selfRefreshEnergy          44006460                       # Energy for self refresh per rank (pJ)
system.mem_ctrl_0.totalEnergy              1218908100                       # Total energy per rank (pJ)
system.mem_ctrl_0.averagePower             511.162595                       # Core power per rank (mW)
system.mem_ctrl_0.totalIdleTime            2259796500                       # Total Idle time Per DRAM Rank
system.mem_ctrl_0.memoryStateTime::IDLE      15000500                       # Time in different power states
system.mem_ctrl_0.memoryStateTime::REF       76700000                       # Time in different power states
system.mem_ctrl_0.memoryStateTime::SREF      70613250                       # Time in different power states
system.mem_ctrl_0.memoryStateTime::PRE_PDN    982326750                       # Time in different power states
system.mem_ctrl_0.memoryStateTime::ACT       33042750                       # Time in different power states
system.mem_ctrl_0.memoryStateTime::ACT_PDN   1206896750                       # Time in different power states
system.mem_ctrl_1.actEnergy                    642600                       # Energy for activate commands per rank (pJ)
system.mem_ctrl_1.preEnergy                    318780                       # Energy for precharge commands per rank (pJ)
system.mem_ctrl_1.readEnergy                  2734620                       # Energy for read commands per rank (pJ)
system.mem_ctrl_1.writeEnergy                       0                       # Energy for write commands per rank (pJ)
system.mem_ctrl_1.refreshEnergy          7375680.000000                       # Energy for refresh commands per rank (pJ)
system.mem_ctrl_1.actBackEnergy               5779800                       # Energy for active background per rank (pJ)
system.mem_ctrl_1.preBackEnergy                401280                       # Energy for precharge background per rank (pJ)
system.mem_ctrl_1.actPowerDownEnergy         30689370                       # Energy for active power-down per rank (pJ)
system.mem_ctrl_1.prePowerDownEnergy          6325440                       # Energy for precharge power-down per rank (pJ)
system.mem_ctrl_1.selfRefreshEnergy         550005180                       # Energy for self refresh per rank (pJ)
system.mem_ctrl_1.totalEnergy               604272750                       # Total energy per rank (pJ)
system.mem_ctrl_1.averagePower             253.408462                       # Core power per rank (mW)
system.mem_ctrl_1.totalIdleTime            2370635500                       # Total Idle time Per DRAM Rank
system.mem_ctrl_1.memoryStateTime::IDLE        724500                       # Time in different power states
system.mem_ctrl_1.memoryStateTime::REF        3120000                       # Time in different power states
system.mem_ctrl_1.memoryStateTime::SREF    2287086000                       # Time in different power states
system.mem_ctrl_1.memoryStateTime::PRE_PDN     16471500                       # Time in different power states
system.mem_ctrl_1.memoryStateTime::ACT        9857250                       # Time in different power states
system.mem_ctrl_1.memoryStateTime::ACT_PDN     67320750                       # Time in different power states
system.pwrStateResidencyTicks::UNDEFINED   2384580000                       # Cumulative time (in ticks) in various power states
system.cpu.branchPred.lookups                  266665                       # Number of BP lookups
system.cpu.branchPred.condPredicted            266665                       # Number of conditional branches predicted
system.cpu.branchPred.condIncorrect              4461                       # Number of conditional branches incorrect
system.cpu.branchPred.BTBLookups               237149                       # Number of BTB lookups
system.cpu.branchPred.BTBHits                       0                       # Number of BTB hits
system.cpu.branchPred.BTBCorrect                    0                       # Number of correct BTB predictions (this stat may not work properly.
system.cpu.branchPred.BTBHitPct              0.000000                       # BTB Hit Percentage
system.cpu.branchPred.usedRAS                   29451                       # Number of times the RAS was used to get a target.
system.cpu.branchPred.RASInCorrect                130                       # Number of incorrect RAS predictions.
system.cpu.branchPred.indirectLookups          237149                       # Number of indirect predictor lookups.
system.cpu.branchPred.indirectHits             196455                       # Number of indirect target hits.
system.cpu.branchPred.indirectMisses            40694                       # Number of indirect misses.
system.cpu.branchPredindirectMispredicted          639                       # Number of mispredicted indirect branches.
system.cpu.dtb.walker.pwrStateResidencyTicks::UNDEFINED   2384580000                       # Cumulative time (in ticks) in various power states
system.cpu.dtb.rdAccesses                     1883042                       # TLB accesses on read requests
system.cpu.dtb.wrAccesses                      303268                       # TLB accesses on write requests
system.cpu.dtb.rdMisses                            84                       # TLB misses on read requests
system.cpu.dtb.wrMisses                            41                       # TLB misses on write requests
system.cpu.apic_clk_domain.clock                 8000                       # Clock period in ticks
system.cpu.interrupts.pwrStateResidencyTicks::UNDEFINED   2384580000                       # Cumulative time (in ticks) in various power states
system.cpu.itb.walker.pwrStateResidencyTicks::UNDEFINED   2384580000                       # Cumulative time (in ticks) in various power states
system.cpu.itb.rdAccesses                           0                       # TLB accesses on read requests
system.cpu.itb.wrAccesses                      515280                       # TLB accesses on write requests
system.cpu.itb.rdMisses                             0                       # TLB misses on read requests
system.cpu.itb.wrMisses                           125                       # TLB misses on write requests
system.cpu.workload.numSyscalls                     9                       # Number of system calls
system.cpu.pwrStateResidencyTicks::ON      2384580000                       # Cumulative time (in ticks) in various power states
system.cpu.numCycles                          4769161                       # number of cpu cycles simulated
system.cpu.numWorkItemsStarted                      0                       # number of work items this cpu started
system.cpu.numWorkItemsCompleted                    0                       # number of work items this cpu completed
system.cpu.fetch.icacheStallCycles              32119                       # Number of cycles fetch is stalled on an Icache miss
system.cpu.fetch.Insts                        5131327                       # Number of instructions fetch has processed
system.cpu.fetch.Branches                      266665                       # Number of branches that fetch encountered
system.cpu.fetch.predictedBranches             225906                       # Number of branches that fetch has predicted taken
system.cpu.fetch.Cycles                       4707879                       # Number of cycles fetch has run and was not squashing or blocked
system.cpu.fetch.SquashCycles                    9096                       # Number of cycles fetch has spent squashing
system.cpu.fetch.MiscStallCycles                   62                       # Number of cycles fetch has spent waiting on interrupts, or bad addresses, or out of MSHRs
system.cpu.fetch.PendingTrapStallCycles           886                       # Number of stall cycles due to pending traps
system.cpu.fetch.PendingQuiesceStallCycles           18                       # Number of stall cycles due to pending quiesce instructions
system.cpu.fetch.IcacheWaitRetryStallCycles           41                       # Number of stall cycles due to full MSHR
system.cpu.fetch.CacheLines                    515195                       # Number of cache lines fetched
system.cpu.fetch.IcacheSquashes                   261                       # Number of outstanding Icache misses that were squashed
system.cpu.fetch.rateDist::samples            4745553                       # Number of instructions fetched each cycle (Total)
system.cpu.fetch.rateDist::mean              1.638111                       # Number of instructions fetched each cycle (Total)
system.cpu.fetch.rateDist::stdev             0.725346                       # Number of instructions fetched each cycle (Total)
system.cpu.fetch.rateDist::underflows               0      0.00%      0.00% # Number of instructions fetched each cycle (Total)
system.cpu.fetch.rateDist::0                   700446     14.76%     14.76% # Number of instructions fetched each cycle (Total)
system.cpu.fetch.rateDist::1                   316473      6.67%     21.43% # Number of instructions fetched each cycle (Total)
system.cpu.fetch.rateDist::2                  3728634     78.57%    100.00% # Number of instructions fetched each cycle (Total)
system.cpu.fetch.rateDist::overflows                0      0.00%    100.00% # Number of instructions fetched each cycle (Total)
system.cpu.fetch.rateDist::min_value                0                       # Number of instructions fetched each cycle (Total)
system.cpu.fetch.rateDist::max_value                2                       # Number of instructions fetched each cycle (Total)
system.cpu.fetch.rateDist::total              4745553                       # Number of instructions fetched each cycle (Total)
system.cpu.fetch.branchRate                  0.055914                       # Number of branch fetches per cycle
system.cpu.fetch.rate                        1.075939                       # Number of inst fetches per cycle
system.cpu.decode.IdleCycles                   242515                       # Number of cycles decode is idle
system.cpu.decode.BlockedCycles                631092                       # Number of cycles decode is blocked
system.cpu.decode.RunCycles                   3599753                       # Number of cycles decode is running
system.cpu.decode.UnblockCycles                267645                       # Number of cycles decode is unblocking
system.cpu.decode.SquashCycles                   4548                       # Number of cycles decode is squashing
system.cpu.decode.DecodedInsts                7658017                       # Number of instructions handled by decode
system.cpu.decode.SquashedInsts                 14152                       # Number of squashed instructions handled by decode
system.cpu.rename.SquashCycles                   4548                       # Number of cycles rename is squashing
system.cpu.rename.IdleCycles                   388737                       # Number of cycles rename is idle
system.cpu.rename.BlockCycles                   35298                       # Number of cycles rename is blocking
system.cpu.rename.serializeStallCycles           1410                       # count of cycles rename stalled for serializing inst
system.cpu.rename.RunCycles                   3719153                       # Number of cycles rename is running
system.cpu.rename.UnblockCycles                596407                       # Number of cycles rename is unblocking
system.cpu.rename.RenamedInsts                7642404                       # Number of instructions processed by rename
system.cpu.rename.SquashedInsts                  8157                       # Number of squashed instructions processed by rename
system.cpu.rename.ROBFullEvents                    25                       # Number of times rename has blocked due to ROB full
system.cpu.rename.IQFullEvents                  53115                       # Number of times rename has blocked due to IQ full
system.cpu.rename.LQFullEvents                 299690                       # Number of times rename has blocked due to LQ full
system.cpu.rename.SQFullEvents                 101890                       # Number of times rename has blocked due to SQ full
system.cpu.rename.FullRegisterEvents             8881                       # Number of times there has been no free registers
system.cpu.rename.RenamedOperands            10263091                       # Number of destination operands rename has renamed
system.cpu.rename.RenameLookups              17159167                       # Number of register rename lookups that rename has made
system.cpu.rename.int_rename_lookups         12145473                       # Number of integer rename lookups
system.cpu.rename.fp_rename_lookups            686106                       # Number of floating rename lookups
system.cpu.rename.CommittedMaps              10093581                       # Number of HB maps that are committed
system.cpu.rename.UndoneMaps                   169510                       # Number of HB maps that are undone due to squashing
system.cpu.rename.serializingInsts                 23                       # count of serializing insts renamed
system.cpu.rename.tempSerializingInsts             19                       # count of temporary serializing insts renamed
system.cpu.rename.skidInsts                    341986                       # count of insts added to the skid buffer
system.cpu.memDep0.insertedLoads              1897593                       # Number of loads inserted to the mem dependence unit.
system.cpu.memDep0.insertedStores              304532                       # Number of stores inserted to the mem dependence unit.
system.cpu.memDep0.conflictingLoads            305540                       # Number of conflicting loads.
system.cpu.memDep0.conflictingStores               70                       # Number of conflicting stores.
system.cpu.iq.iqInstsAdded                    7627561                       # Number of instructions added to the IQ (excludes non-spec)
system.cpu.iq.iqNonSpecInstsAdded                 108                       # Number of non-speculative instructions added to the IQ
system.cpu.iq.iqInstsIssued                   7569039                       # Number of instructions issued
system.cpu.iq.iqSquashedInstsIssued             10258                       # Number of squashed instructions issued
system.cpu.iq.iqSquashedInstsExamined          109761                       # Number of squashed instructions iterated over during squash; mainly for profiling
system.cpu.iq.iqSquashedOperandsExamined       153218                       # Number of squashed operands that are examined and possibly removed from graph
system.cpu.iq.iqSquashedNonSpecRemoved             99                       # Number of squashed non-spec instructions that were removed
system.cpu.iq.issued_per_cycle::samples       4745553                       # Number of insts issued each cycle
system.cpu.iq.issued_per_cycle::mean         1.594975                       # Number of insts issued each cycle
system.cpu.iq.issued_per_cycle::stdev        0.672546                       # Number of insts issued each cycle
system.cpu.iq.issued_per_cycle::underflows            0      0.00%      0.00% # Number of insts issued each cycle
system.cpu.iq.issued_per_cycle::0              501460     10.57%     10.57% # Number of insts issued each cycle
system.cpu.iq.issued_per_cycle::1              919147     19.37%     29.94% # Number of insts issued each cycle
system.cpu.iq.issued_per_cycle::2             3324946     70.06%    100.00% # Number of insts issued each cycle
system.cpu.iq.issued_per_cycle::overflows            0      0.00%    100.00% # Number of insts issued each cycle
system.cpu.iq.issued_per_cycle::min_value            0                       # Number of insts issued each cycle
system.cpu.iq.issued_per_cycle::max_value            2                       # Number of insts issued each cycle
system.cpu.iq.issued_per_cycle::total         4745553                       # Number of insts issued each cycle
system.cpu.iq.fu_full::No_OpClass                   0      0.00%      0.00% # attempts to use FU when none available
system.cpu.iq.fu_full::IntAlu                       0      0.00%      0.00% # attempts to use FU when none available
system.cpu.iq.fu_full::IntMult                      0      0.00%      0.00% # attempts to use FU when none available
system.cpu.iq.fu_full::IntDiv                       1      0.00%      0.00% # attempts to use FU when none available
system.cpu.iq.fu_full::FloatAdd                  9849      2.07%      2.07% # attempts to use FU when none available
system.cpu.iq.fu_full::FloatCmp                     0      0.00%      2.07% # attempts to use FU when none available
system.cpu.iq.fu_full::FloatCvt                     0      0.00%      2.07% # attempts to use FU when none available
system.cpu.iq.fu_full::FloatMult                    0      0.00%      2.07% # attempts to use FU when none available
system.cpu.iq.fu_full::FloatMultAcc                 0      0.00%      2.07% # attempts to use FU when none available
system.cpu.iq.fu_full::FloatDiv                     0      0.00%      2.07% # attempts to use FU when none available
system.cpu.iq.fu_full::FloatMisc                    0      0.00%      2.07% # attempts to use FU when none available
system.cpu.iq.fu_full::FloatSqrt                    0      0.00%      2.07% # attempts to use FU when none available
system.cpu.iq.fu_full::SimdAdd                    250      0.05%      2.12% # attempts to use FU when none available
system.cpu.iq.fu_full::SimdAddAcc                   0      0.00%      2.12% # attempts to use FU when none available
system.cpu.iq.fu_full::SimdAlu                     53      0.01%      2.13% # attempts to use FU when none available
system.cpu.iq.fu_full::SimdCmp                      0      0.00%      2.13% # attempts to use FU when none available
system.cpu.iq.fu_full::SimdCvt                     19      0.00%      2.13% # attempts to use FU when none available
system.cpu.iq.fu_full::SimdMisc                   117      0.02%      2.16% # attempts to use FU when none available
system.cpu.iq.fu_full::SimdMult                     0      0.00%      2.16% # attempts to use FU when none available
system.cpu.iq.fu_full::SimdMultAcc                  0      0.00%      2.16% # attempts to use FU when none available
system.cpu.iq.fu_full::SimdShift                  124      0.03%      2.18% # attempts to use FU when none available
system.cpu.iq.fu_full::SimdShiftAcc                 0      0.00%      2.18% # attempts to use FU when none available
system.cpu.iq.fu_full::SimdSqrt                     0      0.00%      2.18% # attempts to use FU when none available
system.cpu.iq.fu_full::SimdFloatAdd                 0      0.00%      2.18% # attempts to use FU when none available
system.cpu.iq.fu_full::SimdFloatAlu                 0      0.00%      2.18% # attempts to use FU when none available
system.cpu.iq.fu_full::SimdFloatCmp                 0      0.00%      2.18% # attempts to use FU when none available
system.cpu.iq.fu_full::SimdFloatCvt                 0      0.00%      2.18% # attempts to use FU when none available
system.cpu.iq.fu_full::SimdFloatDiv                 0      0.00%      2.18% # attempts to use FU when none available
system.cpu.iq.fu_full::SimdFloatMisc                0      0.00%      2.18% # attempts to use FU when none available
system.cpu.iq.fu_full::SimdFloatMult                0      0.00%      2.18% # attempts to use FU when none available
system.cpu.iq.fu_full::SimdFloatMultAcc             0      0.00%      2.18% # attempts to use FU when none available
system.cpu.iq.fu_full::SimdFloatSqrt                0      0.00%      2.18% # attempts to use FU when none available
system.cpu.iq.fu_full::SimdAes                      0      0.00%      2.18% # attempts to use FU when none available
system.cpu.iq.fu_full::SimdAesMix                   0      0.00%      2.18% # attempts to use FU when none available
system.cpu.iq.fu_full::SimdSha1Hash                 0      0.00%      2.18% # attempts to use FU when none available
system.cpu.iq.fu_full::SimdSha1Hash2                0      0.00%      2.18% # attempts to use FU when none available
system.cpu.iq.fu_full::SimdSha256Hash               0      0.00%      2.18% # attempts to use FU when none available
system.cpu.iq.fu_full::SimdSha256Hash2              0      0.00%      2.18% # attempts to use FU when none available
system.cpu.iq.fu_full::SimdShaSigma2                0      0.00%      2.18% # attempts to use FU when none available
system.cpu.iq.fu_full::SimdShaSigma3                0      0.00%      2.18% # attempts to use FU when none available
system.cpu.iq.fu_full::MemRead                 462311     96.93%     99.12% # attempts to use FU when none available
system.cpu.iq.fu_full::MemWrite                  4213      0.88%    100.00% # attempts to use FU when none available
system.cpu.iq.fu_full::FloatMemRead                 0      0.00%    100.00% # attempts to use FU when none available
system.cpu.iq.fu_full::FloatMemWrite                0      0.00%    100.00% # attempts to use FU when none available
system.cpu.iq.fu_full::IprAccess                    0      0.00%    100.00% # attempts to use FU when none available
system.cpu.iq.fu_full::InstPrefetch                 0      0.00%    100.00% # attempts to use FU when none available
system.cpu.iq.FU_type_0::No_OpClass               283      0.00%      0.00% # Type of FU issued
system.cpu.iq.FU_type_0::IntAlu               4233890     55.94%     55.94% # Type of FU issued
system.cpu.iq.FU_type_0::IntMult               391242      5.17%     61.11% # Type of FU issued
system.cpu.iq.FU_type_0::IntDiv                    41      0.00%     61.11% # Type of FU issued
system.cpu.iq.FU_type_0::FloatAdd              548279      7.24%     68.35% # Type of FU issued
system.cpu.iq.FU_type_0::FloatCmp                   0      0.00%     68.35% # Type of FU issued
system.cpu.iq.FU_type_0::FloatCvt                   0      0.00%     68.35% # Type of FU issued
system.cpu.iq.FU_type_0::FloatMult                  0      0.00%     68.35% # Type of FU issued
system.cpu.iq.FU_type_0::FloatMultAcc               0      0.00%     68.35% # Type of FU issued
system.cpu.iq.FU_type_0::FloatDiv                   0      0.00%     68.35% # Type of FU issued
system.cpu.iq.FU_type_0::FloatMisc                  0      0.00%     68.35% # Type of FU issued
system.cpu.iq.FU_type_0::FloatSqrt                  0      0.00%     68.35% # Type of FU issued
system.cpu.iq.FU_type_0::SimdAdd                  375      0.00%     68.36% # Type of FU issued
system.cpu.iq.FU_type_0::SimdAddAcc                 0      0.00%     68.36% # Type of FU issued
system.cpu.iq.FU_type_0::SimdAlu                 6093      0.08%     68.44% # Type of FU issued
system.cpu.iq.FU_type_0::SimdCmp                    0      0.00%     68.44% # Type of FU issued
system.cpu.iq.FU_type_0::SimdCvt                  108      0.00%     68.44% # Type of FU issued
system.cpu.iq.FU_type_0::SimdMisc                9515      0.13%     68.57% # Type of FU issued
system.cpu.iq.FU_type_0::SimdMult                   0      0.00%     68.57% # Type of FU issued
system.cpu.iq.FU_type_0::SimdMultAcc                0      0.00%     68.57% # Type of FU issued
system.cpu.iq.FU_type_0::SimdShift                186      0.00%     68.57% # Type of FU issued
system.cpu.iq.FU_type_0::SimdShiftAcc               0      0.00%     68.57% # Type of FU issued
system.cpu.iq.FU_type_0::SimdSqrt                   0      0.00%     68.57% # Type of FU issued
system.cpu.iq.FU_type_0::SimdFloatAdd           90000      1.19%     69.76% # Type of FU issued
system.cpu.iq.FU_type_0::SimdFloatAlu               0      0.00%     69.76% # Type of FU issued
system.cpu.iq.FU_type_0::SimdFloatCmp               0      0.00%     69.76% # Type of FU issued
system.cpu.iq.FU_type_0::SimdFloatCvt            9300      0.12%     69.88% # Type of FU issued
system.cpu.iq.FU_type_0::SimdFloatDiv               0      0.00%     69.88% # Type of FU issued
system.cpu.iq.FU_type_0::SimdFloatMisc              0      0.00%     69.88% # Type of FU issued
system.cpu.iq.FU_type_0::SimdFloatMult          90000      1.19%     71.07% # Type of FU issued
system.cpu.iq.FU_type_0::SimdFloatMultAcc            0      0.00%     71.07% # Type of FU issued
system.cpu.iq.FU_type_0::SimdFloatSqrt              0      0.00%     71.07% # Type of FU issued
system.cpu.iq.FU_type_0::SimdAes                    0      0.00%     71.07% # Type of FU issued
system.cpu.iq.FU_type_0::SimdAesMix                 0      0.00%     71.07% # Type of FU issued
system.cpu.iq.FU_type_0::SimdSha1Hash               0      0.00%     71.07% # Type of FU issued
system.cpu.iq.FU_type_0::SimdSha1Hash2              0      0.00%     71.07% # Type of FU issued
system.cpu.iq.FU_type_0::SimdSha256Hash             0      0.00%     71.07% # Type of FU issued
system.cpu.iq.FU_type_0::SimdSha256Hash2            0      0.00%     71.07% # Type of FU issued
system.cpu.iq.FU_type_0::SimdShaSigma2              0      0.00%     71.07% # Type of FU issued
system.cpu.iq.FU_type_0::SimdShaSigma3              0      0.00%     71.07% # Type of FU issued
system.cpu.iq.FU_type_0::MemRead              1616075     21.35%     92.42% # Type of FU issued
system.cpu.iq.FU_type_0::MemWrite              200858      2.65%     95.07% # Type of FU issued
system.cpu.iq.FU_type_0::FloatMemRead          270064      3.57%     98.64% # Type of FU issued
system.cpu.iq.FU_type_0::FloatMemWrite         102730      1.36%    100.00% # Type of FU issued
system.cpu.iq.FU_type_0::IprAccess                  0      0.00%    100.00% # Type of FU issued
system.cpu.iq.FU_type_0::InstPrefetch               0      0.00%    100.00% # Type of FU issued
system.cpu.iq.FU_type_0::total                7569039                       # Type of FU issued
system.cpu.iq.rate                           1.587080                       # Inst issue rate
system.cpu.iq.fu_busy_cnt                      476937                       # FU busy when requested
system.cpu.iq.fu_busy_rate                   0.063012                       # FU busy rate (busy events/executed inst)
system.cpu.iq.int_inst_queue_reads           18103687                       # Number of integer instruction queue reads
system.cpu.iq.int_inst_queue_writes           6586860                       # Number of integer instruction queue writes
system.cpu.iq.int_inst_queue_wakeup_accesses      6431110                       # Number of integer instruction queue wakeup accesses
system.cpu.iq.fp_inst_queue_reads             2267139                       # Number of floating instruction queue reads
system.cpu.iq.fp_inst_queue_writes            1150600                       # Number of floating instruction queue writes
system.cpu.iq.fp_inst_queue_wakeup_accesses      1123646                       # Number of floating instruction queue wakeup accesses
system.cpu.iq.vec_inst_queue_reads                  0                       # Number of vector instruction queue reads
system.cpu.iq.vec_inst_queue_writes                 0                       # Number of vector instruction queue writes
system.cpu.iq.vec_inst_queue_wakeup_accesses            0                       # Number of vector instruction queue wakeup accesses
system.cpu.iq.int_alu_accesses                6908117                       # Number of integer alu accesses
system.cpu.iq.fp_alu_accesses                 1137576                       # Number of floating point alu accesses
system.cpu.iq.vec_alu_accesses                      0                       # Number of vector alu accesses
system.cpu.iew.lsq.thread0.forwLoads           394315                       # Number of loads that had data forwarded from stores
system.cpu.iew.lsq.thread0.invAddrLoads             0                       # Number of loads ignored due to an invalid address
system.cpu.iew.lsq.thread0.squashedLoads        28999                       # Number of loads squashed
system.cpu.iew.lsq.thread0.ignoredResponses         1442                       # Number of memory responses ignored because the instruction is squashed
system.cpu.iew.lsq.thread0.memOrderViolation           30                       # Number of memory ordering violations
system.cpu.iew.lsq.thread0.squashedStores         2514                       # Number of stores squashed
system.cpu.iew.lsq.thread0.invAddrSwpfs             0                       # Number of software prefetches ignored due to an invalid address
system.cpu.iew.lsq.thread0.blockedLoads             0                       # Number of blocked loads due to partial load-store forwarding
system.cpu.iew.lsq.thread0.rescheduledLoads            1                       # Number of loads that were rescheduled
system.cpu.iew.lsq.thread0.cacheBlocked            16                       # Number of times an access to memory failed due to the cache being blocked
system.cpu.iew.iewIdleCycles                        0                       # Number of cycles IEW is idle
system.cpu.iew.iewSquashCycles                   4548                       # Number of cycles IEW is squashing
system.cpu.iew.iewBlockCycles                    7559                       # Number of cycles IEW is blocking
system.cpu.iew.iewUnblockCycles                 10370                       # Number of cycles IEW is unblocking
system.cpu.iew.iewDispatchedInsts             7627669                       # Number of instructions dispatched to IQ
system.cpu.iew.iewDispSquashedInsts              1429                       # Number of squashed instructions skipped by dispatch
system.cpu.iew.iewDispLoadInsts               1897593                       # Number of dispatched load instructions
system.cpu.iew.iewDispStoreInsts               304532                       # Number of dispatched store instructions
system.cpu.iew.iewDispNonSpecInsts                 47                       # Number of dispatched non-speculative instructions
system.cpu.iew.iewIQFullEvents                     19                       # Number of times the IQ has become full, causing a stall
system.cpu.iew.iewLSQFullEvents                  9740                       # Number of times the LSQ has become full, causing a stall
system.cpu.iew.memOrderViolationEvents             30                       # Number of memory order violations
system.cpu.iew.predictedTakenIncorrect           3807                       # Number of branches that were predicted taken incorrectly
system.cpu.iew.predictedNotTakenIncorrect          813                       # Number of branches that were predicted not taken incorrectly
system.cpu.iew.branchMispredicts                 4620                       # Number of branch mispredicts detected at execute
system.cpu.iew.iewExecutedInsts               7557755                       # Number of executed instructions
system.cpu.iew.iewExecLoadInsts               1883038                       # Number of load instructions executed
system.cpu.iew.iewExecSquashedInsts             11284                       # Number of squashed instructions skipped in execute
system.cpu.iew.exec_swp                             0                       # number of swp insts executed
system.cpu.iew.exec_nop                             0                       # number of nop insts executed
system.cpu.iew.exec_refs                      2186306                       # number of memory reference insts executed
system.cpu.iew.exec_branches                   258774                       # Number of branches executed
system.cpu.iew.exec_stores                     303268                       # Number of stores executed
system.cpu.iew.exec_rate                     1.584714                       # Inst execution rate
system.cpu.iew.wb_sent                        7555552                       # cumulative count of insts sent to commit
system.cpu.iew.wb_count                       7554756                       # cumulative count of insts written-back
system.cpu.iew.wb_producers                   5851897                       # num instructions producing a value
system.cpu.iew.wb_consumers                   9277691                       # num instructions consuming a value
system.cpu.iew.wb_rate                       1.584085                       # insts written-back per cycle
system.cpu.iew.wb_fanout                     0.630749                       # average fanout of values written-back
system.cpu.commit.commitSquashedInsts          101444                       # The number of squashed insts skipped by commit
system.cpu.commit.commitNonSpecStalls               9                       # The number of times commit has been forced to stall to communicate backwards
system.cpu.commit.branchMispredicts              4518                       # The number of times a branch was mispredicted
system.cpu.commit.committed_per_cycle::samples      4737407                       # Number of insts commited each cycle
system.cpu.commit.committed_per_cycle::mean     1.586924                       # Number of insts commited each cycle
system.cpu.commit.committed_per_cycle::stdev     0.774648                       # Number of insts commited each cycle
system.cpu.commit.committed_per_cycle::underflows            0      0.00%      0.00% # Number of insts commited each cycle
system.cpu.commit.committed_per_cycle::0       847131     17.88%     17.88% # Number of insts commited each cycle
system.cpu.commit.committed_per_cycle::1       262645      5.54%     23.43% # Number of insts commited each cycle
system.cpu.commit.committed_per_cycle::2      3627631     76.57%    100.00% # Number of insts commited each cycle
system.cpu.commit.committed_per_cycle::overflows            0      0.00%    100.00% # Number of insts commited each cycle
system.cpu.commit.committed_per_cycle::min_value            0                       # Number of insts commited each cycle
system.cpu.commit.committed_per_cycle::max_value            2                       # Number of insts commited each cycle
system.cpu.commit.committed_per_cycle::total      4737407                       # Number of insts commited each cycle
system.cpu.commit.committedInsts              4959569                       # Number of instructions committed
system.cpu.commit.committedOps                7517907                       # Number of ops (including micro ops) committed
system.cpu.commit.swp_count                         0                       # Number of s/w prefetches committed
system.cpu.commit.refs                        2170612                       # Number of memory references committed
system.cpu.commit.loads                       1868594                       # Number of loads committed
system.cpu.commit.membars                           0                       # Number of memory barriers committed
system.cpu.commit.branches                     258206                       # Number of branches committed
system.cpu.commit.vec_insts                         0                       # Number of committed Vector instructions.
system.cpu.commit.fp_insts                    1118846                       # Number of committed floating point instructions.
system.cpu.commit.int_insts                   6781078                       # Number of committed integer instructions.
system.cpu.commit.function_calls                28023                       # Number of function calls committed.
system.cpu.commit.op_class_0::No_OpClass          105      0.00%      0.00% # Class of committed instruction
system.cpu.commit.op_class_0::IntAlu          4210661     56.01%     56.01% # Class of committed instruction
system.cpu.commit.op_class_0::IntMult          390928      5.20%     61.21% # Class of committed instruction
system.cpu.commit.op_class_0::IntDiv               39      0.00%     61.21% # Class of committed instruction
system.cpu.commit.op_class_0::FloatAdd         540010      7.18%     68.39% # Class of committed instruction
system.cpu.commit.op_class_0::FloatCmp              0      0.00%     68.39% # Class of committed instruction
system.cpu.commit.op_class_0::FloatCvt              0      0.00%     68.39% # Class of committed instruction
system.cpu.commit.op_class_0::FloatMult             0      0.00%     68.39% # Class of committed instruction
system.cpu.commit.op_class_0::FloatMultAcc            0      0.00%     68.39% # Class of committed instruction
system.cpu.commit.op_class_0::FloatDiv              0      0.00%     68.39% # Class of committed instruction
system.cpu.commit.op_class_0::FloatMisc             0      0.00%     68.39% # Class of committed instruction
system.cpu.commit.op_class_0::FloatSqrt             0      0.00%     68.39% # Class of committed instruction
system.cpu.commit.op_class_0::SimdAdd             374      0.00%     68.40% # Class of committed instruction
system.cpu.commit.op_class_0::SimdAddAcc            0      0.00%     68.40% # Class of committed instruction
system.cpu.commit.op_class_0::SimdAlu            6070      0.08%     68.48% # Class of committed instruction
system.cpu.commit.op_class_0::SimdCmp               0      0.00%     68.48% # Class of committed instruction
system.cpu.commit.op_class_0::SimdCvt             108      0.00%     68.48% # Class of committed instruction
system.cpu.commit.op_class_0::SimdMisc           9514      0.13%     68.61% # Class of committed instruction
system.cpu.commit.op_class_0::SimdMult              0      0.00%     68.61% # Class of committed instruction
system.cpu.commit.op_class_0::SimdMultAcc            0      0.00%     68.61% # Class of committed instruction
system.cpu.commit.op_class_0::SimdShift           186      0.00%     68.61% # Class of committed instruction
system.cpu.commit.op_class_0::SimdShiftAcc            0      0.00%     68.61% # Class of committed instruction
system.cpu.commit.op_class_0::SimdSqrt              0      0.00%     68.61% # Class of committed instruction
system.cpu.commit.op_class_0::SimdFloatAdd        90000      1.20%     69.81% # Class of committed instruction
system.cpu.commit.op_class_0::SimdFloatAlu            0      0.00%     69.81% # Class of committed instruction
system.cpu.commit.op_class_0::SimdFloatCmp            0      0.00%     69.81% # Class of committed instruction
system.cpu.commit.op_class_0::SimdFloatCvt         9300      0.12%     69.93% # Class of committed instruction
system.cpu.commit.op_class_0::SimdFloatDiv            0      0.00%     69.93% # Class of committed instruction
system.cpu.commit.op_class_0::SimdFloatMisc            0      0.00%     69.93% # Class of committed instruction
system.cpu.commit.op_class_0::SimdFloatMult        90000      1.20%     71.13% # Class of committed instruction
system.cpu.commit.op_class_0::SimdFloatMultAcc            0      0.00%     71.13% # Class of committed instruction
system.cpu.commit.op_class_0::SimdFloatSqrt            0      0.00%     71.13% # Class of committed instruction
system.cpu.commit.op_class_0::SimdAes               0      0.00%     71.13% # Class of committed instruction
system.cpu.commit.op_class_0::SimdAesMix            0      0.00%     71.13% # Class of committed instruction
system.cpu.commit.op_class_0::SimdSha1Hash            0      0.00%     71.13% # Class of committed instruction
system.cpu.commit.op_class_0::SimdSha1Hash2            0      0.00%     71.13% # Class of committed instruction
system.cpu.commit.op_class_0::SimdSha256Hash            0      0.00%     71.13% # Class of committed instruction
system.cpu.commit.op_class_0::SimdSha256Hash2            0      0.00%     71.13% # Class of committed instruction
system.cpu.commit.op_class_0::SimdShaSigma2            0      0.00%     71.13% # Class of committed instruction
system.cpu.commit.op_class_0::SimdShaSigma3            0      0.00%     71.13% # Class of committed instruction
system.cpu.commit.op_class_0::MemRead         1598538     21.26%     92.39% # Class of committed instruction
system.cpu.commit.op_class_0::MemWrite         199302      2.65%     95.04% # Class of committed instruction
system.cpu.commit.op_class_0::FloatMemRead       270056      3.59%     98.63% # Class of committed instruction
system.cpu.commit.op_class_0::FloatMemWrite       102716      1.37%    100.00% # Class of committed instruction
system.cpu.commit.op_class_0::IprAccess             0      0.00%    100.00% # Class of committed instruction
system.cpu.commit.op_class_0::InstPrefetch            0      0.00%    100.00% # Class of committed instruction
system.cpu.commit.op_class_0::total           7517907                       # Class of committed instruction
system.cpu.commit.bw_lim_events               3627631                       # number cycles where commit BW limit reached
system.cpu.rob.rob_reads                      8729127                       # The number of ROB reads
system.cpu.rob.rob_writes                    15246849                       # The number of ROB writes
system.cpu.timesIdled                             266                       # Number of times that the entire CPU went into an idle state and unscheduled itself
system.cpu.idleCycles                           23608                       # Total number of cycles that the CPU has spent unscheduled due to idling
system.cpu.committedInsts                     4959569                       # Number of Instructions Simulated
system.cpu.committedOps                       7517907                       # Number of Ops (including micro ops) Simulated
system.cpu.cpi                               0.961608                       # CPI: Cycles Per Instruction
system.cpu.cpi_total                         0.961608                       # CPI: Total CPI of All Threads
system.cpu.ipc                               1.039925                       # IPC: Instructions Per Cycle
system.cpu.ipc_total                         1.039925                       # IPC: Total IPC of All Threads
system.cpu.int_regfile_reads                 11999507                       # number of integer regfile reads
system.cpu.int_regfile_writes                 6363199                       # number of integer regfile writes
system.cpu.fp_regfile_reads                    686032                       # number of floating regfile reads
system.cpu.fp_regfile_writes                  1021013                       # number of floating regfile writes
system.cpu.cc_regfile_reads                   1560214                       # number of cc regfile reads
system.cpu.cc_regfile_writes                  2752545                       # number of cc regfile writes
system.cpu.misc_regfile_reads                 2723797                       # number of misc regfile reads
system.cpu.dcache.tags.pwrStateResidencyTicks::UNDEFINED   2384580000                       # Cumulative time (in ticks) in various power states
system.cpu.dcache.tags.tagsinuse           247.727755                       # Cycle average of tags in use
system.cpu.dcache.tags.total_refs             1786021                       # Total number of references to valid blocks.
system.cpu.dcache.tags.sampled_refs             12799                       # Sample count of references to valid blocks.
system.cpu.dcache.tags.avg_refs            139.543792                       # Average number of references to valid blocks.
system.cpu.dcache.tags.warmup_cycle            170000                       # Cycle when the warmup percentage was hit.
system.cpu.dcache.tags.occ_blocks::.cpu.data   247.727755                       # Average occupied blocks per requestor
system.cpu.dcache.tags.occ_percent::.cpu.data     0.967687                       # Average percentage of cache occupancy
system.cpu.dcache.tags.occ_percent::total     0.967687                       # Average percentage of cache occupancy
system.cpu.dcache.tags.occ_task_id_blocks::1024          256                       # Occupied blocks per task id
system.cpu.dcache.tags.age_task_id_blocks_1024::0           45                       # Occupied blocks per task id
system.cpu.dcache.tags.age_task_id_blocks_1024::1          168                       # Occupied blocks per task id
system.cpu.dcache.tags.age_task_id_blocks_1024::2           43                       # Occupied blocks per task id
system.cpu.dcache.tags.occ_task_id_percent::1024            1                       # Percentage of cache occupancy per task id
system.cpu.dcache.tags.tag_accesses           1803454                       # Number of tag accesses
system.cpu.dcache.tags.data_accesses          1803454                       # Number of data accesses
system.cpu.dcache.pwrStateResidencyTicks::UNDEFINED   2384580000                       # Cumulative time (in ticks) in various power states
system.cpu.dcache.ReadReq_hits::.cpu.data      1474411                       # number of ReadReq hits
system.cpu.dcache.ReadReq_hits::total         1474411                       # number of ReadReq hits
system.cpu.dcache.WriteReq_hits::.cpu.data       298811                       # number of WriteReq hits
system.cpu.dcache.WriteReq_hits::total         298811                       # number of WriteReq hits
system.cpu.dcache.demand_hits::.cpu.data      1773222                       # number of demand (read+write) hits
system.cpu.dcache.demand_hits::total          1773222                       # number of demand (read+write) hits
system.cpu.dcache.overall_hits::.cpu.data      1773222                       # number of overall hits
system.cpu.dcache.overall_hits::total         1773222                       # number of overall hits
system.cpu.dcache.ReadReq_misses::.cpu.data        14226                       # number of ReadReq misses
system.cpu.dcache.ReadReq_misses::total         14226                       # number of ReadReq misses
system.cpu.dcache.WriteReq_misses::.cpu.data         3207                       # number of WriteReq misses
system.cpu.dcache.WriteReq_misses::total         3207                       # number of WriteReq misses
system.cpu.dcache.demand_misses::.cpu.data        17433                       # number of demand (read+write) misses
system.cpu.dcache.demand_misses::total          17433                       # number of demand (read+write) misses
system.cpu.dcache.overall_misses::.cpu.data        17433                       # number of overall misses
system.cpu.dcache.overall_misses::total         17433                       # number of overall misses
system.cpu.dcache.ReadReq_miss_latency::.cpu.data    233109000                       # number of ReadReq miss cycles
system.cpu.dcache.ReadReq_miss_latency::total    233109000                       # number of ReadReq miss cycles
system.cpu.dcache.WriteReq_miss_latency::.cpu.data    139828500                       # number of WriteReq miss cycles
system.cpu.dcache.WriteReq_miss_latency::total    139828500                       # number of WriteReq miss cycles
system.cpu.dcache.demand_miss_latency::.cpu.data    372937500                       # number of demand (read+write) miss cycles
system.cpu.dcache.demand_miss_latency::total    372937500                       # number of demand (read+write) miss cycles
system.cpu.dcache.overall_miss_latency::.cpu.data    372937500                       # number of overall miss cycles
system.cpu.dcache.overall_miss_latency::total    372937500                       # number of overall miss cycles
system.cpu.dcache.ReadReq_accesses::.cpu.data      1488637                       # number of ReadReq accesses(hits+misses)
system.cpu.dcache.ReadReq_accesses::total      1488637                       # number of ReadReq accesses(hits+misses)
system.cpu.dcache.WriteReq_accesses::.cpu.data       302018                       # number of WriteReq accesses(hits+misses)
system.cpu.dcache.WriteReq_accesses::total       302018                       # number of WriteReq accesses(hits+misses)
system.cpu.dcache.demand_accesses::.cpu.data      1790655                       # number of demand (read+write) accesses
system.cpu.dcache.demand_accesses::total      1790655                       # number of demand (read+write) accesses
system.cpu.dcache.overall_accesses::.cpu.data      1790655                       # number of overall (read+write) accesses
system.cpu.dcache.overall_accesses::total      1790655                       # number of overall (read+write) accesses
system.cpu.dcache.ReadReq_miss_rate::.cpu.data     0.009556                       # miss rate for ReadReq accesses
system.cpu.dcache.ReadReq_miss_rate::total     0.009556                       # miss rate for ReadReq accesses
system.cpu.dcache.WriteReq_miss_rate::.cpu.data     0.010619                       # miss rate for WriteReq accesses
system.cpu.dcache.WriteReq_miss_rate::total     0.010619                       # miss rate for WriteReq accesses
system.cpu.dcache.demand_miss_rate::.cpu.data     0.009736                       # miss rate for demand accesses
system.cpu.dcache.demand_miss_rate::total     0.009736                       # miss rate for demand accesses
system.cpu.dcache.overall_miss_rate::.cpu.data     0.009736                       # miss rate for overall accesses
system.cpu.dcache.overall_miss_rate::total     0.009736                       # miss rate for overall accesses
system.cpu.dcache.ReadReq_avg_miss_latency::.cpu.data 16386.123998                       # average ReadReq miss latency
system.cpu.dcache.ReadReq_avg_miss_latency::total 16386.123998                       # average ReadReq miss latency
system.cpu.dcache.WriteReq_avg_miss_latency::.cpu.data 43601.028999                       # average WriteReq miss latency
system.cpu.dcache.WriteReq_avg_miss_latency::total 43601.028999                       # average WriteReq miss latency
system.cpu.dcache.demand_avg_miss_latency::.cpu.data 21392.617450                       # average overall miss latency
[...]
system.l3bus.snoop_fanout::min_value                0                       # Request fanout histogram
system.l3bus.snoop_fanout::max_value                0                       # Request fanout histogram
system.l3bus.snoop_fanout::total                 1420                       # Request fanout histogram
system.l3bus.reqLayer0.occupancy               712500                       # Layer occupancy (ticks)
system.l3bus.reqLayer0.utilization                0.0                       # Layer utilization (%)
system.l3bus.respLayer0.occupancy             3550000                       # Layer occupancy (ticks)
system.l3bus.respLayer0.utilization               0.1                       # Layer utilization (%)
system.l3cache.tags.pwrStateResidencyTicks::UNDEFINED   2384580000                       # Cumulative time (in ticks) in various power states
system.l3cache.tags.tagsinuse             1183.155127                       # Cycle average of tags in use
system.l3cache.tags.total_refs                   1420                       # Total number of references to valid blocks.
system.l3cache.tags.sampled_refs                 1420                       # Sample count of references to valid blocks.
system.l3cache.tags.avg_refs                        1                       # Average number of references to valid blocks.
system.l3cache.tags.warmup_cycle                76000                       # Cycle when the warmup percentage was hit.
system.l3cache.tags.occ_blocks::.cpu.inst   393.317068                       # Average occupied blocks per requestor
system.l3cache.tags.occ_blocks::.cpu.data   789.838059                       # Average occupied blocks per requestor
system.l3cache.tags.occ_percent::.cpu.inst     0.024006                       # Average percentage of cache occupancy
system.l3cache.tags.occ_percent::.cpu.data     0.048208                       # Average percentage of cache occupancy
system.l3cache.tags.occ_percent::total       0.072214                       # Average percentage of cache occupancy
system.l3cache.tags.occ_task_id_blocks::1024         1420                       # Occupied blocks per task id
system.l3cache.tags.age_task_id_blocks_1024::0           59                       # Occupied blocks per task id
system.l3cache.tags.age_task_id_blocks_1024::1            9                       # Occupied blocks per task id
system.l3cache.tags.age_task_id_blocks_1024::2           89                       # Occupied blocks per task id
system.l3cache.tags.age_task_id_blocks_1024::3         1263                       # Occupied blocks per task id
system.l3cache.tags.occ_task_id_percent::1024     0.086670                       # Percentage of cache occupancy per task id
system.l3cache.tags.tag_accesses                24140                       # Number of tag accesses
system.l3cache.tags.data_accesses               24140                       # Number of data accesses
system.l3cache.pwrStateResidencyTicks::UNDEFINED   2384580000                       # Cumulative time (in ticks) in various power states
system.l3cache.ReadExReq_misses::.cpu.data          869                       # number of ReadExReq misses
system.l3cache.ReadExReq_misses::total            869                       # number of ReadExReq misses
system.l3cache.ReadSharedReq_misses::.cpu.inst          440                       # number of ReadSharedReq misses
system.l3cache.ReadSharedReq_misses::.cpu.data          111                       # number of ReadSharedReq misses
system.l3cache.ReadSharedReq_misses::total          551                       # number of ReadSharedReq misses
system.l3cache.demand_misses::.cpu.inst           440                       # number of demand (read+write) misses
system.l3cache.demand_misses::.cpu.data           980                       # number of demand (read+write) misses
system.l3cache.demand_misses::total              1420                       # number of demand (read+write) misses
system.l3cache.overall_misses::.cpu.inst          440                       # number of overall misses
system.l3cache.overall_misses::.cpu.data          980                       # number of overall misses
system.l3cache.overall_misses::total             1420                       # number of overall misses
system.l3cache.ReadExReq_miss_latency::.cpu.data     86813000                       # number of ReadExReq miss cycles
system.l3cache.ReadExReq_miss_latency::total     86813000                       # number of ReadExReq miss cycles
system.l3cache.ReadSharedReq_miss_latency::.cpu.inst     32963000                       # number of ReadSharedReq miss cycles
system.l3cache.ReadSharedReq_miss_latency::.cpu.data      8102500                       # number of ReadSharedReq miss cycles
system.l3cache.ReadSharedReq_miss_latency::total     41065500                       # number of ReadSharedReq miss cycles
system.l3cache.demand_miss_latency::.cpu.inst     32963000                       # number of demand (read+write) miss cycles
system.l3cache.demand_miss_latency::.cpu.data     94915500                       # number of demand (read+write) miss cycles
system.l3cache.demand_miss_latency::total    127878500                       # number of demand (read+write) miss cycles
system.l3cache.overall_miss_latency::.cpu.inst     32963000                       # number of overall miss cycles
system.l3cache.overall_miss_latency::.cpu.data     94915500                       # number of overall miss cycles
system.l3cache.overall_miss_latency::total    127878500                       # number of overall miss cycles
system.l3cache.ReadExReq_accesses::.cpu.data          869                       # number of ReadExReq accesses(hits+misses)
system.l3cache.ReadExReq_accesses::total          869                       # number of ReadExReq accesses(hits+misses)
system.l3cache.ReadSharedReq_accesses::.cpu.inst          440                       # number of ReadSharedReq accesses(hits+misses)
system.l3cache.ReadSharedReq_accesses::.cpu.data          111                       # number of ReadSharedReq accesses(hits+misses)
system.l3cache.ReadSharedReq_accesses::total          551                       # number of ReadSharedReq accesses(hits+misses)
system.l3cache.demand_accesses::.cpu.inst          440                       # number of demand (read+write) accesses
system.l3cache.demand_accesses::.cpu.data          980                       # number of demand (read+write) accesses
system.l3cache.demand_accesses::total            1420                       # number of demand (read+write) accesses
system.l3cache.overall_accesses::.cpu.inst          440                       # number of overall (read+write) accesses
system.l3cache.overall_accesses::.cpu.data          980                       # number of overall (read+write) accesses
system.l3cache.overall_accesses::total           1420                       # number of overall (read+write) accesses
system.l3cache.ReadExReq_miss_rate::.cpu.data            1                       # miss rate for ReadExReq accesses
system.l3cache.ReadExReq_miss_rate::total            1                       # miss rate for ReadExReq accesses
system.l3cache.ReadSharedReq_miss_rate::.cpu.inst            1                       # miss rate for ReadSharedReq accesses
system.l3cache.ReadSharedReq_miss_rate::.cpu.data            1                       # miss rate for ReadSharedReq accesses
system.l3cache.ReadSharedReq_miss_rate::total            1                       # miss rate for ReadSharedReq accesses
system.l3cache.demand_miss_rate::.cpu.inst            1                       # miss rate for demand accesses
system.l3cache.demand_miss_rate::.cpu.data            1                       # miss rate for demand accesses
system.l3cache.demand_miss_rate::total              1                       # miss rate for demand accesses
system.l3cache.overall_miss_rate::.cpu.inst            1                       # miss rate for overall accesses
system.l3cache.overall_miss_rate::.cpu.data            1                       # miss rate for overall accesses
system.l3cache.overall_miss_rate::total             1                       # miss rate for overall accesses
system.l3cache.ReadExReq_avg_miss_latency::.cpu.data 99899.884925                       # average ReadExReq miss latency
system.l3cache.ReadExReq_avg_miss_latency::total 99899.884925                       # average ReadExReq miss latency
system.l3cache.ReadSharedReq_avg_miss_latency::.cpu.inst 74915.909091                       # average ReadSharedReq miss latency
system.l3cache.ReadSharedReq_avg_miss_latency::.cpu.data 72995.495495                       # average ReadSharedReq miss latency
system.l3cache.ReadSharedReq_avg_miss_latency::total 74529.038113                       # average ReadSharedReq miss latency
system.l3cache.demand_avg_miss_latency::.cpu.inst 74915.909091                       # average overall miss latency
system.l3cache.demand_avg_miss_latency::.cpu.data 96852.551020                       # average overall miss latency
system.l3cache.demand_avg_miss_latency::total 90055.281690                       # average overall miss latency
system.l3cache.overall_avg_miss_latency::.cpu.inst 74915.909091                       # average overall miss latency
system.l3cache.overall_avg_miss_latency::.cpu.data 96852.551020                       # average overall miss latency
system.l3cache.overall_avg_miss_latency::total 90055.281690                       # average overall miss latency
system.l3cache.blocked_cycles::no_mshrs             0                       # number of cycles access was blocked
system.l3cache.blocked_cycles::no_targets            0                       # number of cycles access was blocked
system.l3cache.blocked::no_mshrs                    0                       # number of cycles access was blocked
system.l3cache.blocked::no_targets                  0                       # number of cycles access was blocked
system.l3cache.avg_blocked_cycles::no_mshrs          nan                       # average number of cycles each access was blocked
system.l3cache.avg_blocked_cycles::no_targets          nan                       # average number of cycles each access was blocked
system.l3cache.ReadExReq_mshr_misses::.cpu.data          869                       # number of ReadExReq MSHR misses
system.l3cache.ReadExReq_mshr_misses::total          869                       # number of ReadExReq MSHR misses
system.l3cache.ReadSharedReq_mshr_misses::.cpu.inst          440                       # number of ReadSharedReq MSHR misses
system.l3cache.ReadSharedReq_mshr_misses::.cpu.data          111                       # number of ReadSharedReq MSHR misses
system.l3cache.ReadSharedReq_mshr_misses::total          551                       # number of ReadSharedReq MSHR misses
system.l3cache.demand_mshr_misses::.cpu.inst          440                       # number of demand (read+write) MSHR misses
system.l3cache.demand_mshr_misses::.cpu.data          980                       # number of demand (read+write) MSHR misses
system.l3cache.demand_mshr_misses::total         1420                       # number of demand (read+write) MSHR misses
system.l3cache.overall_mshr_misses::.cpu.inst          440                       # number of overall MSHR misses
system.l3cache.overall_mshr_misses::.cpu.data          980                       # number of overall MSHR misses
system.l3cache.overall_mshr_misses::total         1420                       # number of overall MSHR misses
system.l3cache.ReadExReq_mshr_miss_latency::.cpu.data     85075000                       # number of ReadExReq MSHR miss cycles
system.l3cache.ReadExReq_mshr_miss_latency::total     85075000                       # number of ReadExReq MSHR miss cycles
system.l3cache.ReadSharedReq_mshr_miss_latency::.cpu.inst     32083000                       # number of ReadSharedReq MSHR miss cycles
system.l3cache.ReadSharedReq_mshr_miss_latency::.cpu.data      7880500                       # number of ReadSharedReq MSHR miss cycles
system.l3cache.ReadSharedReq_mshr_miss_latency::total     39963500                       # number of ReadSharedReq MSHR miss cycles
system.l3cache.demand_mshr_miss_latency::.cpu.inst     32083000                       # number of demand (read+write) MSHR miss cycles
system.l3cache.demand_mshr_miss_latency::.cpu.data     92955500                       # number of demand (read+write) MSHR miss cycles
system.l3cache.demand_mshr_miss_latency::total    125038500                       # number of demand (read+write) MSHR miss cycles
system.l3cache.overall_mshr_miss_latency::.cpu.inst     32083000                       # number of overall MSHR miss cycles
system.l3cache.overall_mshr_miss_latency::.cpu.data     92955500                       # number of overall MSHR miss cycles
system.l3cache.overall_mshr_miss_latency::total    125038500                       # number of overall MSHR miss cycles
system.l3cache.ReadExReq_mshr_miss_rate::.cpu.data            1                       # mshr miss rate for ReadExReq accesses
system.l3cache.ReadExReq_mshr_miss_rate::total            1                       # mshr miss rate for ReadExReq accesses
system.l3cache.ReadSharedReq_mshr_miss_rate::.cpu.inst            1                       # mshr miss rate for ReadSharedReq accesses
system.l3cache.ReadSharedReq_mshr_miss_rate::.cpu.data            1                       # mshr miss rate for ReadSharedReq accesses
system.l3cache.ReadSharedReq_mshr_miss_rate::total            1                       # mshr miss rate for ReadSharedReq accesses
system.l3cache.demand_mshr_miss_rate::.cpu.inst            1                       # mshr miss rate for demand accesses
system.l3cache.demand_mshr_miss_rate::.cpu.data            1                       # mshr miss rate for demand accesses
system.l3cache.demand_mshr_miss_rate::total            1                       # mshr miss rate for demand accesses
system.l3cache.overall_mshr_miss_rate::.cpu.inst            1                       # mshr miss rate for overall accesses
system.l3cache.overall_mshr_miss_rate::.cpu.data            1                       # mshr miss rate for overall accesses
system.l3cache.overall_mshr_miss_rate::total            1                       # mshr miss rate for overall accesses
system.l3cache.ReadExReq_avg_mshr_miss_latency::.cpu.data 97899.884925                       # average ReadExReq mshr miss latency
system.l3cache.ReadExReq_avg_mshr_miss_latency::total 97899.884925                       # average ReadExReq mshr miss latency
system.l3cache.ReadSharedReq_avg_mshr_miss_latency::.cpu.inst 72915.909091                       # average ReadSharedReq mshr miss latency
system.l3cache.ReadSharedReq_avg_mshr_miss_latency::.cpu.data 70995.495495                       # average ReadSharedReq mshr miss latency
system.l3cache.ReadSharedReq_avg_mshr_miss_latency::total 72529.038113                       # average ReadSharedReq mshr miss latency
system.l3cache.demand_avg_mshr_miss_latency::.cpu.inst 72915.909091                       # average overall mshr miss latency
system.l3cache.demand_avg_mshr_miss_latency::.cpu.data 94852.551020                       # average overall mshr miss latency
system.l3cache.demand_avg_mshr_miss_latency::total 88055.281690                       # average overall mshr miss latency
system.l3cache.overall_avg_mshr_miss_latency::.cpu.inst 72915.909091                       # average overall mshr miss latency
system.l3cache.overall_avg_mshr_miss_latency::.cpu.data 94852.551020                       # average overall mshr miss latency
system.l3cache.overall_avg_mshr_miss_latency::total 88055.281690                       # average overall mshr miss latency
system.l3cache.replacements                         0                       # number of replacements
system.membus.snoop_filter.tot_requests          1420                       # Total number of requests made to the snoop filter.
system.membus.snoop_filter.hit_single_requests            0                       # Number of requests hitting in the snoop filter with a single holder of the requested data.
system.membus.snoop_filter.hit_multi_requests            0                       # Number of requests hitting in the snoop filter with multiple (>1) holders of the requested data.
system.membus.snoop_filter.tot_snoops               0                       # Total number of snoops made to the snoop filter.
system.membus.snoop_filter.hit_single_snoops            0                       # Number of snoops hitting in the snoop filter with a single holder of the requested data.
system.membus.snoop_filter.hit_multi_snoops            0                       # Number of snoops hitting in the snoop filter with multiple (>1) holders of the requested data.
system.membus.pwrStateResidencyTicks::UNDEFINED   2384580000                       # Cumulative time (in ticks) in various power states
system.membus.trans_dist::ReadResp                551                       # Transaction distribution
system.membus.trans_dist::ReadExReq               869                       # Transaction distribution
system.membus.trans_dist::ReadExResp              869                       # Transaction distribution
system.membus.trans_dist::ReadSharedReq           551                       # Transaction distribution
system.membus.pkt_count_system.l3cache.mem_side::system.mem_ctrl.port         2840                       # Packet count per connected master and slave (bytes)
system.membus.pkt_count_system.l3cache.mem_side::total         2840                       # Packet count per connected master and slave (bytes)
system.membus.pkt_count::total                   2840                       # Packet count per connected master and slave (bytes)
system.membus.pkt_size_system.l3cache.mem_side::system.mem_ctrl.port        90880                       # Cumulative packet size per connected master and slave (bytes)
system.membus.pkt_size_system.l3cache.mem_side::total        90880                       # Cumulative packet size per connected master and slave (bytes)
system.membus.pkt_size::total                   90880                       # Cumulative packet size per connected master and slave (bytes)
system.membus.snoops                                0                       # Total snoops (count)
system.membus.snoopTraffic                          0                       # Total snoop traffic (bytes)
system.membus.snoop_fanout::samples              1420                       # Request fanout histogram
system.membus.snoop_fanout::mean                    0                       # Request fanout histogram
system.membus.snoop_fanout::stdev                   0                       # Request fanout histogram
system.membus.snoop_fanout::underflows              0      0.00%      0.00% # Request fanout histogram
system.membus.snoop_fanout::0                    1420    100.00%    100.00% # Request fanout histogram
system.membus.snoop_fanout::1                       0      0.00%    100.00% # Request fanout histogram
system.membus.snoop_fanout::overflows               0      0.00%    100.00% # Request fanout histogram
system.membus.snoop_fanout::min_value               0                       # Request fanout histogram
system.membus.snoop_fanout::max_value               0                       # Request fanout histogram
system.membus.snoop_fanout::total                1420                       # Request fanout histogram
system.membus.reqLayer0.occupancy              710000                       # Layer occupancy (ticks)
system.membus.reqLayer0.utilization               0.0                       # Layer utilization (%)
system.membus.respLayer0.occupancy            3833750                       # Layer occupancy (ticks)
system.membus.respLayer0.utilization              0.2                       # Layer utilization (%)

---------- End Simulation Statistics   ----------
