
---------- Begin Simulation Statistics ----------
sim_seconds                                  0.003311                       # Number of seconds simulated
sim_ticks                                  3311369500                       # Number of ticks simulated
final_tick                                 3311369500                       # Number of ticks from beginning of simulation (restored from checkpoints and never reset)
sim_freq                                 1000000000000                       # Frequency of simulated ticks
host_inst_rate                                 147028                       # Simulator instruction rate (inst/s)
host_op_rate                                   230827                       # Simulator op (including micro ops) rate (op/s)
host_tick_rate                              125039251                       # Simulator tick rate (ticks/s)
host_mem_usage                                 648608                       # Number of bytes of host memory used
host_seconds                                    26.48                       # Real time elapsed on the host
sim_insts                                     3893691                       # Number of instructions simulated
sim_ops                                       6112914                       # Number of ops (including micro ops) simulated
system.clk_domain.voltage_domain.voltage            1                       # Voltage in Volts
system.clk_domain.clock                           500                       # Clock period in ticks
system.mem_ctrl.pwrStateResidencyTicks::UNDEFINED   3311369500                       # Cumulative time (in ticks) in various power states
system.mem_ctrl.bytes_read::.cpu.inst           28032                       # Number of bytes read from this memory
system.mem_ctrl.bytes_read::.cpu.data           53248                       # Number of bytes read from this memory
system.mem_ctrl.bytes_read::total               81280                       # Number of bytes read from this memory
system.mem_ctrl.bytes_inst_read::.cpu.inst        28032                       # Number of instructions bytes read from this memory
system.mem_ctrl.bytes_inst_read::total          28032                       # Number of instructions bytes read from this memory
system.mem_ctrl.num_reads::.cpu.inst              438                       # Number of read requests responded to by this memory
system.mem_ctrl.num_reads::.cpu.data              832                       # Number of read requests responded to by this memory
system.mem_ctrl.num_reads::total                 1270                       # Number of read requests responded to by this memory
system.mem_ctrl.bw_read::.cpu.inst            8465380                       # Total read bandwidth from this memory (bytes/s)
system.mem_ctrl.bw_read::.cpu.data           16080356                       # Total read bandwidth from this memory (bytes/s)
system.mem_ctrl.bw_read::total               24545736                       # Total read bandwidth from this memory (bytes/s)
system.mem_ctrl.bw_inst_read::.cpu.inst       8465380                       # Instruction read bandwidth from this memory (bytes/s)
system.mem_ctrl.bw_inst_read::total           8465380                       # Instruction read bandwidth from this memory (bytes/s)
system.mem_ctrl.bw_total::.cpu.inst           8465380                       # Total bandwidth to/from this memory (bytes/s)
system.mem_ctrl.bw_total::.cpu.data          16080356                       # Total bandwidth to/from this memory (bytes/s)
system.mem_ctrl.bw_total::total              24545736                       # Total bandwidth to/from this memory (bytes/s)
system.mem_ctrl.avgPriority_.cpu.inst::samples       438.00                       # Average QoS priority value for accepted requests
system.mem_ctrl.avgPriority_.cpu.data::samples       832.00                       # Average QoS priority value for accepted requests
system.mem_ctrl.priorityMinLatency       0.000000018750                       # per QoS priority minimum request to response latency (s)
system.mem_ctrl.priorityMaxLatency       0.000001105750                       # per QoS priority maximum request to response latency (s)
system.mem_ctrl.numReadWriteTurnArounds             0                       # Number of turnarounds from READ to WRITE
system.mem_ctrl.numWriteReadTurnArounds             0                       # Number of turnarounds from WRITE to READ
system.mem_ctrl.numStayReadState                 2593                       # Number of times bus staying in READ state
system.mem_ctrl.numStayWriteState                   0                       # Number of times bus staying in WRITE state
system.mem_ctrl.readReqs                         1270                       # Number of read requests accepted
system.mem_ctrl.writeReqs                           0                       # Number of write requests accepted
system.mem_ctrl.readBursts                       1270                       # Number of DRAM read bursts, including those serviced by the write queue
system.mem_ctrl.writeBursts                         0                       # Number of DRAM write bursts, including those merged in the write queue
system.mem_ctrl.bytesReadDRAM                   81280                       # Total number of bytes read from DRAM
system.mem_ctrl.bytesReadWrQ                        0                       # Total number of bytes read from write queue
system.mem_ctrl.bytesWritten                        0                       # Total number of bytes written to DRAM
system.mem_ctrl.bytesReadSys                    81280                       # Total read bytes from the system interface side
system.mem_ctrl.bytesWrittenSys                     0                       # Total written bytes from the system interface side
system.mem_ctrl.servicedByWrQ                       0                       # Number of DRAM read bursts serviced by the write queue
system.mem_ctrl.mergedWrBursts                      0                       # Number of DRAM write bursts merged with an existing one
system.mem_ctrl.neitherReadNorWriteReqs             0                       # Number of requests that are neither read nor write
system.mem_ctrl.perBankRdBursts::0                134                       # Per bank write bursts
system.mem_ctrl.perBankRdBursts::1                 82                       # Per bank write bursts
system.mem_ctrl.perBankRdBursts::2                149                       # Per bank write bursts
system.mem_ctrl.perBankRdBursts::3                139                       # Per bank write bursts
system.mem_ctrl.perBankRdBursts::4                130                       # Per bank write bursts
system.mem_ctrl.perBankRdBursts::5                138                       # Per bank write bursts
system.mem_ctrl.perBankRdBursts::6                 64                       # Per bank write bursts
system.mem_ctrl.perBankRdBursts::7                 39                       # Per bank write bursts
system.mem_ctrl.perBankRdBursts::8                  1                       # Per bank write bursts
system.mem_ctrl.perBankRdBursts::9                 15                       # Per bank write bursts
system.mem_ctrl.perBankRdBursts::10                26                       # Per bank write bursts
system.mem_ctrl.perBankRdBursts::11                12                       # Per bank write bursts
system.mem_ctrl.perBankRdBursts::12                49                       # Per bank write bursts
system.mem_ctrl.perBankRdBursts::13                83                       # Per bank write bursts
system.mem_ctrl.perBankRdBursts::14               117                       # Per bank write bursts
system.mem_ctrl.perBankRdBursts::15                92                       # Per bank write bursts
system.mem_ctrl.perBankWrBursts::0                  0                       # Per bank write bursts
system.mem_ctrl.perBankWrBursts::1                  0                       # Per bank write bursts
system.mem_ctrl.perBankWrBursts::2                  0                       # Per bank write bursts
system.mem_ctrl.perBankWrBursts::3                  0                       # Per bank write bursts
system.mem_ctrl.perBankWrBursts::4                  0                       # Per bank write bursts
system.mem_ctrl.perBankWrBursts::5                  0                       # Per bank write bursts
system.mem_ctrl.perBankWrBursts::6                  0                       # Per bank write bursts
system.mem_ctrl.perBankWrBursts::7                  0                       # Per bank write bursts
system.mem_ctrl.perBankWrBursts::8                  0                       # Per bank write bursts
system.mem_ctrl.perBankWrBursts::9                  0                       # Per bank write bursts
system.mem_ctrl.perBankWrBursts::10                 0                       # Per bank write bursts
system.mem_ctrl.perBankWrBursts::11                 0                       # Per bank write bursts
system.mem_ctrl.perBankWrBursts::12                 0                       # Per bank write bursts
system.mem_ctrl.perBankWrBursts::13                 0                       # Per bank write bursts
system.mem_ctrl.perBankWrBursts::14                 0                       # Per bank write bursts
system.mem_ctrl.perBankWrBursts::15                 0                       # Per bank write bursts
system.mem_ctrl.numRdRetry                          0                       # Number of times read queue was full causing retry
system.mem_ctrl.numWrRetry                          0                       # Number of times write queue was full causing retry
system.mem_ctrl.totGap                     3311278000                       # Total gap between requests
system.mem_ctrl.readPktSize::0                      0                       # Read request sizes (log2)
system.mem_ctrl.readPktSize::1                      0                       # Read request sizes (log2)
system.mem_ctrl.readPktSize::2                      0                       # Read request sizes (log2)
system.mem_ctrl.readPktSize::3                      0                       # Read request sizes (log2)
system.mem_ctrl.readPktSize::4                      0                       # Read request sizes (log2)
system.mem_ctrl.readPktSize::5                      0                       # Read request sizes (log2)
system.mem_ctrl.readPktSize::6                   1270                       # Read request sizes (log2)
system.mem_ctrl.writePktSize::0                     0                       # Write request sizes (log2)
system.mem_ctrl.writePktSize::1                     0                       # Write request sizes (log2)
system.mem_ctrl.writePktSize::2                     0                       # Write request sizes (log2)
system.mem_ctrl.writePktSize::3                     0                       # Write request sizes (log2)
system.mem_ctrl.writePktSize::4                     0                       # Write request sizes (log2)
system.mem_ctrl.writePktSize::5                     0                       # Write request sizes (log2)
system.mem_ctrl.writePktSize::6                     0                       # Write request sizes (log2)
system.mem_ctrl.rdQLenPdf::0                     1043                       # What read queue length does an incoming req see
system.mem_ctrl.rdQLenPdf::1                      171                       # What read queue length does an incoming req see
system.mem_ctrl.rdQLenPdf::2                       45                       # What read queue length does an incoming req see
system.mem_ctrl.rdQLenPdf::3                        8                       # What read queue length does an incoming req see
system.mem_ctrl.rdQLenPdf::4                        3                       # What read queue length does an incoming req see
system.mem_ctrl.rdQLenPdf::5                        0                       # What read queue length does an incoming req see
system.mem_ctrl.rdQLenPdf::6                        0                       # What read queue length does an incoming req see
system.mem_ctrl.rdQLenPdf::7                        0                       # What read queue length does an incoming req see
system.mem_ctrl.rdQLenPdf::8                        0                       # What read queue length does an incoming req see
system.mem_ctrl.rdQLenPdf::9                        0                       # What read queue length does an incoming req see
system.mem_ctrl.rdQLenPdf::10                       0                       # What read queue length does an incoming req see
system.mem_ctrl.rdQLenPdf::11                       0                       # What read queue length does an incoming req see
system.mem_ctrl.rdQLenPdf::12                       0                       # What read queue length does an incoming req see
system.mem_ctrl.rdQLenPdf::13                       0                       # What read queue length does an incoming req see
system.mem_ctrl.rdQLenPdf::14                       0                       # What read queue length does an incoming req see
system.mem_ctrl.rdQLenPdf::15                       0                       # What read queue length does an incoming req see
system.mem_ctrl.rdQLenPdf::16                       0                       # What read queue length does an incoming req see
system.mem_ctrl.rdQLenPdf::17                       0                       # What read queue length does an incoming req see
system.mem_ctrl.rdQLenPdf::18                       0                       # What read queue length does an incoming req see
system.mem_ctrl.rdQLenPdf::19                       0                       # What read queue length does an incoming req see
system.mem_ctrl.rdQLenPdf::20                       0                       # What read queue length does an incoming req see
system.mem_ctrl.rdQLenPdf::21                       0                       # What read queue length does an incoming req see
system.mem_ctrl.rdQLenPdf::22                       0                       # What read queue length does an incoming req see
system.mem_ctrl.rdQLenPdf::23                       0                       # What read queue length does an incoming req see
system.mem_ctrl.rdQLenPdf::24                       0                       # What read queue length does an incoming req see
system.mem_ctrl.rdQLenPdf::25                       0                       # What read queue length does an incoming req see
system.mem_ctrl.rdQLenPdf::26                       0                       # What read queue length does an incoming req see
system.mem_ctrl.rdQLenPdf::27                       0                       # What read queue length does an incoming req see
system.mem_ctrl.rdQLenPdf::28                       0                       # What read queue length does an incoming req see
system.mem_ctrl.rdQLenPdf::29                       0                       # What read queue length does an incoming req see
system.mem_ctrl.rdQLenPdf::30                       0                       # What read queue length does an incoming req see
system.mem_ctrl.rdQLenPdf::31                       0                       # What read queue length does an incoming req see
system.mem_ctrl.wrQLenPdf::0                        0                       # What write queue length does an incoming req see
system.mem_ctrl.wrQLenPdf::1                        0                       # What write queue length does an incoming req see
system.mem_ctrl.wrQLenPdf::2                        0                       # What write queue length does an incoming req see
system.mem_ctrl.wrQLenPdf::3                        0                       # What write queue length does an incoming req see
system.mem_ctrl.wrQLenPdf::4                        0                       # What write queue length does an incoming req see
system.mem_ctrl.wrQLenPdf::5                        0                       # What write queue length does an incoming req see
system.mem_ctrl.wrQLenPdf::6                        0                       # What write queue length does an incoming req see
system.mem_ctrl.wrQLenPdf::7                        0                       # What write queue length does an incoming req see
system.mem_ctrl.wrQLenPdf::8                        0                       # What write queue length does an incoming req see
system.mem_ctrl.wrQLenPdf::9                        0                       # What write queue length does an incoming req see
system.mem_ctrl.wrQLenPdf::10                       0                       # What write queue length does an incoming req see
system.mem_ctrl.wrQLenPdf::11                       0                       # What write queue length does an incoming req see
system.mem_ctrl.wrQLenPdf::12                       0                       # What write queue length does an incoming req see
system.mem_ctrl.wrQLenPdf::13                       0                       # What write queue length does an incoming req see
system.mem_ctrl.wrQLenPdf::14                       0                       # What write queue length does an incoming req see
system.mem_ctrl.wrQLenPdf::15                       0                       # What write queue length does an incoming req see
system.mem_ctrl.wrQLenPdf::16                       0                       # What write queue length does an incoming req see
system.mem_ctrl.wrQLenPdf::17                       0                       # What write queue length does an incoming req see
system.mem_ctrl.wrQLenPdf::18                       0                       # What write queue length does an incoming req see
system.mem_ctrl.wrQLenPdf::19                       0                       # What write queue length does an incoming req see
system.mem_ctrl.wrQLenPdf::20                       0                       # What write queue length does an incoming req see
system.mem_ctrl.wrQLenPdf::21                       0                       # What write queue length does an incoming req see
system.mem_ctrl.wrQLenPdf::22                       0                       # What write queue length does an incoming req see
system.mem_ctrl.wrQLenPdf::23                       0                       # What write queue length does an incoming req see
system.mem_ctrl.wrQLenPdf::24                       0                       # What write queue length does an incoming req see
system.mem_ctrl.wrQLenPdf::25                       0                       # What write queue length does an incoming req see
system.mem_ctrl.wrQLenPdf::26                       0                       # What write queue length does an incoming req see
system.mem_ctrl.wrQLenPdf::27                       0                       # What write queue length does an incoming req see
system.mem_ctrl.wrQLenPdf::28                       0                       # What write queue length does an incoming req see
system.mem_ctrl.wrQLenPdf::29                       0                       # What write queue length does an incoming req see
system.mem_ctrl.wrQLenPdf::30                       0                       # What write queue length does an incoming req see
system.mem_ctrl.wrQLenPdf::31                       0                       # What write queue length does an incoming req see
system.mem_ctrl.wrQLenPdf::32                       0                       # What write queue length does an incoming req see
system.mem_ctrl.wrQLenPdf::33                       0                       # What write queue length does an incoming req see
system.mem_ctrl.wrQLenPdf::34                       0                       # What write queue length does an incoming req see
system.mem_ctrl.wrQLenPdf::35                       0                       # What write queue length does an incoming req see
system.mem_ctrl.wrQLenPdf::36                       0                       # What write queue length does an incoming req see
system.mem_ctrl.wrQLenPdf::37                       0                       # What write queue length does an incoming req see
system.mem_ctrl.wrQLenPdf::38                       0                       # What write queue length does an incoming req see
system.mem_ctrl.wrQLenPdf::39                       0                       # What write queue length does an incoming req see
system.mem_ctrl.wrQLenPdf::40                       0                       # What write queue length does an incoming req see
system.mem_ctrl.wrQLenPdf::41                       0                       # What write queue length does an incoming req see
system.mem_ctrl.wrQLenPdf::42                       0                       # What write queue length does an incoming req see
system.mem_ctrl.wrQLenPdf::43                       0                       # What write queue length does an incoming req see
system.mem_ctrl.wrQLenPdf::44                       0                       # What write queue length does an incoming req see
system.mem_ctrl.wrQLenPdf::45                       0                       # What write queue length does an incoming req see
system.mem_ctrl.wrQLenPdf::46                       0                       # What write queue length does an incoming req see
system.mem_ctrl.wrQLenPdf::47                       0                       # What write queue length does an incoming req see
system.mem_ctrl.wrQLenPdf::48                       0                       # What write queue length does an incoming req see
system.mem_ctrl.wrQLenPdf::49                       0                       # What write queue length does an incoming req see
system.mem_ctrl.wrQLenPdf::50                       0                       # What write queue length does an incoming req see
system.mem_ctrl.wrQLenPdf::51                       0                       # What write queue length does an incoming req see
system.mem_ctrl.wrQLenPdf::52                       0                       # What write queue length does an incoming req see
system.mem_ctrl.wrQLenPdf::53                       0                       # What write queue length does an incoming req see
system.mem_ctrl.wrQLenPdf::54                       0                       # What write queue length does an incoming req see
system.mem_ctrl.wrQLenPdf::55                       0                       # What write queue length does an incoming req see
system.mem_ctrl.wrQLenPdf::56                       0                       # What write queue length does an incoming req see
system.mem_ctrl.wrQLenPdf::57                       0                       # What write queue length does an incoming req see
system.mem_ctrl.wrQLenPdf::58                       0                       # What write queue length does an incoming req see
system.mem_ctrl.wrQLenPdf::59                       0                       # What write queue length does an incoming req see
system.mem_ctrl.wrQLenPdf::60                       0                       # What write queue length does an incoming req see
system.mem_ctrl.wrQLenPdf::61                       0                       # What write queue length does an incoming req see
system.mem_ctrl.wrQLenPdf::62                       0                       # What write queue length does an incoming req see
system.mem_ctrl.wrQLenPdf::63                       0                       # What write queue length does an incoming req see
system.mem_ctrl.bytesPerActivate::samples          201                       # Bytes accessed per row activation
system.mem_ctrl.bytesPerActivate::mean     396.099502                       # Bytes accessed per row activation
system.mem_ctrl.bytesPerActivate::gmean    252.136081                       # Bytes accessed per row activation
system.mem_ctrl.bytesPerActivate::stdev    337.954420                       # Bytes accessed per row activation
system.mem_ctrl.bytesPerActivate::0-127            48     23.88%     23.88% # Bytes accessed per row activation
system.mem_ctrl.bytesPerActivate::128-255           47     23.38%     47.26% # Bytes accessed per row activation
system.mem_ctrl.bytesPerActivate::256-383           19      9.45%     56.72% # Bytes accessed per row activation
system.mem_ctrl.bytesPerActivate::384-511           16      7.96%     64.68% # Bytes accessed per row activation
system.mem_ctrl.bytesPerActivate::512-639            9      4.48%     69.15% # Bytes accessed per row activation
system.mem_ctrl.bytesPerActivate::640-767           31     15.42%     84.58% # Bytes accessed per row activation
system.mem_ctrl.bytesPerActivate::768-895            2      1.00%     85.57% # Bytes accessed per row activation
system.mem_ctrl.bytesPerActivate::896-1023            2      1.00%     86.57% # Bytes accessed per row activation
system.mem_ctrl.bytesPerActivate::1024-1151           27     13.43%    100.00% # Bytes accessed per row activation
system.mem_ctrl.bytesPerActivate::total           201                       # Bytes accessed per row activation
system.mem_ctrl.masterReadBytes::.cpu.inst        28032                       # Per-master bytes read from memory
system.mem_ctrl.masterReadBytes::.cpu.data        53248                       # Per-master bytes read from memory
system.mem_ctrl.masterReadRate::.cpu.inst 8465379.656362721696                       # Per-master bytes read from memory rate (Bytes/sec)
system.mem_ctrl.masterReadRate::.cpu.data 16080355.876926450059                       # Per-master bytes read from memory rate (Bytes/sec)
system.mem_ctrl.masterReadAccesses::.cpu.inst          438                       # Per-master read serviced memory accesses
system.mem_ctrl.masterReadAccesses::.cpu.data          832                       # Per-master read serviced memory accesses
system.mem_ctrl.masterReadTotalLat::.cpu.inst     17226750                       # Per-master read total memory access latency
system.mem_ctrl.masterReadTotalLat::.cpu.data     29121250                       # Per-master read total memory access latency
system.mem_ctrl.masterReadAvgLat::.cpu.inst     39330.48                       # Per-master read average memory access latency
system.mem_ctrl.masterReadAvgLat::.cpu.data     35001.50                       # Per-master read average memory access latency
system.mem_ctrl.totQLat                      22535500                       # Total ticks spent queuing
system.mem_ctrl.totMemAccLat                 46348000                       # Total ticks spent from burst creation until serviced by the DRAM
system.mem_ctrl.totBusLat                     6350000                       # Total ticks spent in databus transfers
system.mem_ctrl.avgQLat                      17744.49                       # Average queueing delay per DRAM burst
system.mem_ctrl.avgBusLat                     5000.00                       # Average bus latency per DRAM burst
system.mem_ctrl.avgMemAccLat                 36494.49                       # Average memory access latency per DRAM burst
system.mem_ctrl.avgRdBW                         24.55                       # Average DRAM read bandwidth in MiByte/s
system.mem_ctrl.avgWrBW                          0.00                       # Average achieved write bandwidth in MiByte/s
system.mem_ctrl.avgRdBWSys                      24.55                       # Average system read bandwidth in MiByte/s
system.mem_ctrl.avgWrBWSys                       0.00                       # Average system write bandwidth in MiByte/s
system.mem_ctrl.peakBW                       12800.00                       # Theoretical peak bandwidth in MiByte/s
system.mem_ctrl.busUtil                          0.19                       # Data bus utilization in percentage
system.mem_ctrl.busUtilRead                      0.19                       # Data bus utilization in percentage for reads
system.mem_ctrl.busUtilWrite                     0.00                       # Data bus utilization in percentage for writes
system.mem_ctrl.avgRdQLen                        1.01                       # Average read queue length when enqueuing
system.mem_ctrl.avgWrQLen                        0.00                       # Average write queue length when enqueuing
system.mem_ctrl.readRowHits                      1060                       # Number of row buffer hits during reads
system.mem_ctrl.writeRowHits                        0                       # Number of row buffer hits during writes
system.mem_ctrl.readRowHitRate                  83.46                       # Row buffer hit rate for reads
system.mem_ctrl.writeRowHitRate                   nan                       # Row buffer hit rate for writes
system.mem_ctrl.avgGap                     2607305.51                       # Average gap between requests
system.mem_ctrl.pageHitRate                     83.46                       # Row buffer hit rate, read and write combined
system.mem_ctrl_0.actEnergy                    878220                       # Energy for activate commands per rank (pJ)
system.mem_ctrl_0.preEnergy                    451605                       # Energy for precharge commands per rank (pJ)
system.mem_ctrl_0.readEnergy                  6247500                       # Energy for read commands per rank (pJ)
system.mem_ctrl_0.writeEnergy                       0                       # Energy for write commands per rank (pJ)
system.mem_ctrl_0.refreshEnergy          31961280.000000                       # Energy for refresh commands per rank (pJ)
system.mem_ctrl_0.actBackEnergy              16491240                       # Energy for active background per rank (pJ)
system.mem_ctrl_0.preBackEnergy               1572480                       # Energy for precharge background per rank (pJ)
system.mem_ctrl_0.actPowerDownEnergy        135490710                       # Energy for active power-down per rank (pJ)
system.mem_ctrl_0.prePowerDownEnergy         28165440                       # Energy for precharge power-down per rank (pJ)
system.mem_ctrl_0.selfRefreshEnergy         700570020                       # Energy for self refresh per rank (pJ)
system.mem_ctrl_0.totalEnergy               921828495                       # Total energy per rank (pJ)
system.mem_ctrl_0.averagePower             278.382855                       # Core power per rank (mW)
system.mem_ctrl_0.totalIdleTime            3271069750                       # Total Idle time Per DRAM Rank
system.mem_ctrl_0.memoryStateTime::IDLE       2562500                       # Time in different power states
system.mem_ctrl_0.memoryStateTime::REF       13520000                       # Time in different power states
system.mem_ctrl_0.memoryStateTime::SREF    2900635000                       # Time in different power states
system.mem_ctrl_0.memoryStateTime::PRE_PDN     73346750                       # Time in different power states
system.mem_ctrl_0.memoryStateTime::ACT       24169000                       # Time in different power states
system.mem_ctrl_0.memoryStateTime::ACT_PDN    297136250                       # Time in different power states
system.mem_ctrl_1.actEnergy                    621180                       # Energy for activate commands per rank (pJ)
system.mem_ctrl_1.preEnergy                    311190                       # Energy for precharge commands per rank (pJ)
system.mem_ctrl_1.readEnergy                  2820300                       # Energy for read commands per rank (pJ)
system.mem_ctrl_1.writeEnergy                       0                       # Energy for write commands per rank (pJ)
system.mem_ctrl_1.refreshEnergy          11678160.000000                       # Energy for refresh commands per rank (pJ)
system.mem_ctrl_1.actBackEnergy               6658740                       # Energy for active background per rank (pJ)
system.mem_ctrl_1.preBackEnergy                875040                       # Energy for precharge background per rank (pJ)
system.mem_ctrl_1.actPowerDownEnergy         40924860                       # Energy for active power-down per rank (pJ)
system.mem_ctrl_1.prePowerDownEnergy         17897280                       # Energy for precharge power-down per rank (pJ)
system.mem_ctrl_1.selfRefreshEnergy         761265540                       # Energy for self refresh per rank (pJ)
system.mem_ctrl_1.totalEnergy               843052290                       # Total energy per rank (pJ)
system.mem_ctrl_1.averagePower             254.593240                       # Core power per rank (mW)
system.mem_ctrl_1.totalIdleTime            3294270250                       # Total Idle time Per DRAM Rank
system.mem_ctrl_1.memoryStateTime::IDLE       1834500                       # Time in different power states
system.mem_ctrl_1.memoryStateTime::REF        4940000                       # Time in different power states
system.mem_ctrl_1.memoryStateTime::SREF    3158134750                       # Time in different power states
system.mem_ctrl_1.memoryStateTime::PRE_PDN     46609000                       # Time in different power states
system.mem_ctrl_1.memoryStateTime::ACT       10093500                       # Time in different power states
system.mem_ctrl_1.memoryStateTime::ACT_PDN     89757750                       # Time in different power states
system.pwrStateResidencyTicks::UNDEFINED   3311369500                       # Cumulative time (in ticks) in various power states
system.cpu.branchPred.lookups                  776040                       # Number of BP lookups
system.cpu.branchPred.condPredicted            776040                       # Number of conditional branches predicted
system.cpu.branchPred.condIncorrect             91796                       # Number of conditional branches incorrect
system.cpu.branchPred.BTBLookups               580535                       # Number of BTB lookups
system.cpu.branchPred.BTBHits                       0                       # Number of BTB hits
system.cpu.branchPred.BTBCorrect                    0                       # Number of correct BTB predictions (this stat may not work properly.
system.cpu.branchPred.BTBHitPct              0.000000                       # BTB Hit Percentage
system.cpu.branchPred.usedRAS                   48575                       # Number of times the RAS was used to get a target.
system.cpu.branchPred.RASInCorrect               5244                       # Number of incorrect RAS predictions.
system.cpu.branchPred.indirectLookups          580535                       # Number of indirect predictor lookups.
system.cpu.branchPred.indirectHits             386312                       # Number of indirect target hits.
system.cpu.branchPred.indirectMisses           194223                       # Number of indirect misses.
system.cpu.branchPredindirectMispredicted        42619                       # Number of mispredicted indirect branches.
system.cpu.dtb.walker.pwrStateResidencyTicks::UNDEFINED   3311369500                       # Cumulative time (in ticks) in various power states
system.cpu.dtb.rdAccesses                     2358938                       # TLB accesses on read requests
system.cpu.dtb.wrAccesses                      590177                       # TLB accesses on write requests
system.cpu.dtb.rdMisses                            73                       # TLB misses on read requests
system.cpu.dtb.wrMisses                            36                       # TLB misses on write requests
system.cpu.apic_clk_domain.clock                 8000                       # Clock period in ticks
system.cpu.interrupts.pwrStateResidencyTicks::UNDEFINED   3311369500                       # Cumulative time (in ticks) in various power states
system.cpu.itb.walker.pwrStateResidencyTicks::UNDEFINED   3311369500                       # Cumulative time (in ticks) in various power states
system.cpu.itb.rdAccesses                           0                       # TLB accesses on read requests
system.cpu.itb.wrAccesses                      754196                       # TLB accesses on write requests
system.cpu.itb.rdMisses                             0                       # TLB misses on read requests
system.cpu.itb.wrMisses                           157                       # TLB misses on write requests
system.cpu.workload.numSyscalls                     9                       # Number of system calls
system.cpu.pwrStateResidencyTicks::ON      3311369500                       # Cumulative time (in ticks) in various power states
system.cpu.numCycles                          6622740                       # number of cpu cycles simulated
system.cpu.numWorkItemsStarted                      0                       # number of work items this cpu started
system.cpu.numWorkItemsCompleted                    0                       # number of work items this cpu completed
system.cpu.fetch.icacheStallCycles              93022                       # Number of cycles fetch is stalled on an Icache miss
system.cpu.fetch.Insts                        6648215                       # Number of instructions fetch has processed
system.cpu.fetch.Branches                      776040                       # Number of branches that fetch encountered
system.cpu.fetch.predictedBranches             434887                       # Number of branches that fetch has predicted taken
system.cpu.fetch.Cycles                       6412030                       # Number of cycles fetch has run and was not squashing or blocked
system.cpu.fetch.SquashCycles                  185232                       # Number of cycles fetch has spent squashing
system.cpu.fetch.TlbCycles                         70                       # Number of cycles fetch has spent waiting for tlb
system.cpu.fetch.MiscStallCycles                   73                       # Number of cycles fetch has spent waiting on interrupts, or bad addresses, or out of MSHRs
system.cpu.fetch.PendingTrapStallCycles          1001                       # Number of stall cycles due to pending traps
system.cpu.fetch.PendingQuiesceStallCycles           19                       # Number of stall cycles due to pending quiesce instructions
system.cpu.fetch.IcacheWaitRetryStallCycles           44                       # Number of stall cycles due to full MSHR
system.cpu.fetch.CacheLines                    754082                       # Number of cache lines fetched
system.cpu.fetch.IcacheSquashes                   267                       # Number of outstanding Icache misses that were squashed
system.cpu.fetch.ItlbSquashes                       1                       # Number of outstanding ITLB misses that were squashed
system.cpu.fetch.rateDist::samples            6598875                       # Number of instructions fetched each cycle (Total)
system.cpu.fetch.rateDist::mean              1.588594                       # Number of instructions fetched each cycle (Total)
system.cpu.fetch.rateDist::stdev             0.773420                       # Number of instructions fetched each cycle (Total)
system.cpu.fetch.rateDist::underflows               0      0.00%      0.00% # Number of instructions fetched each cycle (Total)
system.cpu.fetch.rateDist::0                  1174692     17.80%     17.80% # Number of instructions fetched each cycle (Total)
system.cpu.fetch.rateDist::1                   365431      5.54%     23.34% # Number of instructions fetched each cycle (Total)
system.cpu.fetch.rateDist::2                  5058752     76.66%    100.00% # Number of instructions fetched each cycle (Total)
system.cpu.fetch.rateDist::overflows                0      0.00%    100.00% # Number of instructions fetched each cycle (Total)
system.cpu.fetch.rateDist::min_value                0                       # Number of instructions fetched each cycle (Total)
system.cpu.fetch.rateDist::max_value                2                       # Number of instructions fetched each cycle (Total)
system.cpu.fetch.rateDist::total              6598875                       # Number of instructions fetched each cycle (Total)
system.cpu.fetch.branchRate                  0.117178                       # Number of branch fetches per cycle
system.cpu.fetch.rate                        1.003847                       # Number of inst fetches per cycle
system.cpu.decode.IdleCycles                   611281                       # Number of cycles decode is idle
system.cpu.decode.BlockedCycles               1107431                       # Number of cycles decode is blocked
system.cpu.decode.RunCycles                   4260487                       # Number of cycles decode is running
system.cpu.decode.UnblockCycles                527060                       # Number of cycles decode is unblocking
system.cpu.decode.SquashCycles                  92616                       # Number of cycles decode is squashing
system.cpu.decode.DecodedInsts                9168236                       # Number of instructions handled by decode
system.cpu.decode.SquashedInsts                287681                       # Number of squashed instructions handled by decode
system.cpu.rename.SquashCycles                  92616                       # Number of cycles rename is squashing
system.cpu.rename.IdleCycles                  1149762                       # Number of cycles rename is idle
system.cpu.rename.BlockCycles                  413681                       # Number of cycles rename is blocking
system.cpu.rename.serializeStallCycles           1626                       # count of cycles rename stalled for serializing inst
system.cpu.rename.RunCycles                   4200329                       # Number of cycles rename is running
system.cpu.rename.UnblockCycles                740861                       # Number of cycles rename is unblocking
system.cpu.rename.RenamedInsts                8856575                       # Number of instructions processed by rename
system.cpu.rename.SquashedInsts                146064                       # Number of squashed instructions processed by rename
system.cpu.rename.ROBFullEvents                    25                       # Number of times rename has blocked due to ROB full
system.cpu.rename.IQFullEvents                 223410                       # Number of times rename has blocked due to IQ full
system.cpu.rename.LQFullEvents                 199504                       # Number of times rename has blocked due to LQ full
system.cpu.rename.SQFullEvents                  85230                       # Number of times rename has blocked due to SQ full
system.cpu.rename.FullRegisterEvents            20532                       # Number of times there has been no free registers
system.cpu.rename.RenamedOperands             9895748                       # Number of destination operands rename has renamed
system.cpu.rename.RenameLookups              22195898                       # Number of register rename lookups that rename has made
system.cpu.rename.int_rename_lookups         14836577                       # Number of integer rename lookups
system.cpu.rename.fp_rename_lookups              3826                       # Number of floating rename lookups
system.cpu.rename.CommittedMaps               7013491                       # Number of HB maps that are committed
system.cpu.rename.UndoneMaps                  2882257                       # Number of HB maps that are undone due to squashing
system.cpu.rename.serializingInsts                 22                       # count of serializing insts renamed
system.cpu.rename.tempSerializingInsts             21                       # count of temporary serializing insts renamed
system.cpu.rename.skidInsts                    880678                       # count of insts added to the skid buffer
system.cpu.memDep0.insertedLoads              2756511                       # Number of loads inserted to the mem dependence unit.
system.cpu.memDep0.insertedStores              743615                       # Number of stores inserted to the mem dependence unit.
system.cpu.memDep0.conflictingLoads            940999                       # Number of conflicting loads.
system.cpu.memDep0.conflictingStores           327543                       # Number of conflicting stores.
system.cpu.iq.iqInstsAdded                    8549113                       # Number of instructions added to the IQ (excludes non-spec)
system.cpu.iq.iqNonSpecInstsAdded                  79                       # Number of non-speculative instructions added to the IQ
system.cpu.iq.iqInstsIssued                   7534350                       # Number of instructions issued
system.cpu.iq.iqSquashedInstsIssued             63792                       # Number of squashed instructions issued
system.cpu.iq.iqSquashedInstsExamined         2436277                       # Number of squashed instructions iterated over during squash; mainly for profiling
system.cpu.iq.iqSquashedOperandsExamined      3620304                       # Number of squashed operands that are examined and possibly removed from graph
system.cpu.iq.iqSquashedNonSpecRemoved             70                       # Number of squashed non-spec instructions that were removed
system.cpu.iq.issued_per_cycle::samples       6598875                       # Number of insts issued each cycle
system.cpu.iq.issued_per_cycle::mean         1.141763                       # Number of insts issued each cycle
system.cpu.iq.issued_per_cycle::stdev        0.788337                       # Number of insts issued each cycle
system.cpu.iq.issued_per_cycle::underflows            0      0.00%      0.00% # Number of insts issued each cycle
system.cpu.iq.issued_per_cycle::0             1649087     24.99%     24.99% # Number of insts issued each cycle
system.cpu.iq.issued_per_cycle::1             2365226     35.84%     60.83% # Number of insts issued each cycle
system.cpu.iq.issued_per_cycle::2             2584562     39.17%    100.00% # Number of insts issued each cycle
system.cpu.iq.issued_per_cycle::overflows            0      0.00%    100.00% # Number of insts issued each cycle
system.cpu.iq.issued_per_cycle::min_value            0                       # Number of insts issued each cycle
system.cpu.iq.issued_per_cycle::max_value            2                       # Number of insts issued each cycle
system.cpu.iq.issued_per_cycle::total         6598875                       # Number of insts issued each cycle
system.cpu.iq.fu_full::No_OpClass                   0      0.00%      0.00% # attempts to use FU when none available
system.cpu.iq.fu_full::IntAlu                       0      0.00%      0.00% # attempts to use FU when none available
system.cpu.iq.fu_full::IntMult                      0      0.00%      0.00% # attempts to use FU when none available
system.cpu.iq.fu_full::IntDiv                    1899      0.22%      0.22% # attempts to use FU when none available
system.cpu.iq.fu_full::FloatAdd                     0      0.00%      0.22% # attempts to use FU when none available
system.cpu.iq.fu_full::FloatCmp                     0      0.00%      0.22% # attempts to use FU when none available
system.cpu.iq.fu_full::FloatCvt                     0      0.00%      0.22% # attempts to use FU when none available
system.cpu.iq.fu_full::FloatMult                    0      0.00%      0.22% # attempts to use FU when none available
system.cpu.iq.fu_full::FloatMultAcc                 0      0.00%      0.22% # attempts to use FU when none available
system.cpu.iq.fu_full::FloatDiv                     0      0.00%      0.22% # attempts to use FU when none available
system.cpu.iq.fu_full::FloatMisc                    0      0.00%      0.22% # attempts to use FU when none available
system.cpu.iq.fu_full::FloatSqrt                    0      0.00%      0.22% # attempts to use FU when none available
system.cpu.iq.fu_full::SimdAdd                    251      0.03%      0.24% # attempts to use FU when none available
system.cpu.iq.fu_full::SimdAddAcc                   0      0.00%      0.24% # attempts to use FU when none available
system.cpu.iq.fu_full::SimdAlu                     52      0.01%      0.25% # attempts to use FU when none available
system.cpu.iq.fu_full::SimdCmp                      0      0.00%      0.25% # attempts to use FU when none available
system.cpu.iq.fu_full::SimdCvt                     18      0.00%      0.25% # attempts to use FU when none available
system.cpu.iq.fu_full::SimdMisc                   119      0.01%      0.27% # attempts to use FU when none available
system.cpu.iq.fu_full::SimdMult                     0      0.00%      0.27% # attempts to use FU when none available
system.cpu.iq.fu_full::SimdMultAcc                  0      0.00%      0.27% # attempts to use FU when none available
system.cpu.iq.fu_full::SimdShift                  124      0.01%      0.28% # attempts to use FU when none available
system.cpu.iq.fu_full::SimdShiftAcc                 0      0.00%      0.28% # attempts to use FU when none available
system.cpu.iq.fu_full::SimdSqrt                     0      0.00%      0.28% # attempts to use FU when none available
system.cpu.iq.fu_full::SimdFloatAdd                 0      0.00%      0.28% # attempts to use FU when none available
system.cpu.iq.fu_full::SimdFloatAlu                 0      0.00%      0.28% # attempts to use FU when none available
system.cpu.iq.fu_full::SimdFloatCmp                 0      0.00%      0.28% # attempts to use FU when none available
system.cpu.iq.fu_full::SimdFloatCvt                 0      0.00%      0.28% # attempts to use FU when none available
system.cpu.iq.fu_full::SimdFloatDiv                 0      0.00%      0.28% # attempts to use FU when none available
system.cpu.iq.fu_full::SimdFloatMisc                0      0.00%      0.28% # attempts to use FU when none available
system.cpu.iq.fu_full::SimdFloatMult                0      0.00%      0.28% # attempts to use FU when none available
system.cpu.iq.fu_full::SimdFloatMultAcc             0      0.00%      0.28% # attempts to use FU when none available
system.cpu.iq.fu_full::SimdFloatSqrt                0      0.00%      0.28% # attempts to use FU when none available
system.cpu.iq.fu_full::SimdAes                      0      0.00%      0.28% # attempts to use FU when none available
system.cpu.iq.fu_full::SimdAesMix                   0      0.00%      0.28% # attempts to use FU when none available
system.cpu.iq.fu_full::SimdSha1Hash                 0      0.00%      0.28% # attempts to use FU when none available
system.cpu.iq.fu_full::SimdSha1Hash2                0      0.00%      0.28% # attempts to use FU when none available
system.cpu.iq.fu_full::SimdSha256Hash               0      0.00%      0.28% # attempts to use FU when none available
system.cpu.iq.fu_full::SimdSha256Hash2              0      0.00%      0.28% # attempts to use FU when none available
system.cpu.iq.fu_full::SimdShaSigma2                0      0.00%      0.28% # attempts to use FU when none available
system.cpu.iq.fu_full::SimdShaSigma3                0      0.00%      0.28% # attempts to use FU when none available
system.cpu.iq.fu_full::MemRead                 816953     93.00%     93.28% # attempts to use FU when none available
system.cpu.iq.fu_full::MemWrite                 59043      6.72%    100.00% # attempts to use FU when none available
system.cpu.iq.fu_full::FloatMemRead                 0      0.00%    100.00% # attempts to use FU when none available
system.cpu.iq.fu_full::FloatMemWrite                0      0.00%    100.00% # attempts to use FU when none available
system.cpu.iq.fu_full::IprAccess                    0      0.00%    100.00% # attempts to use FU when none available
system.cpu.iq.fu_full::InstPrefetch                 0      0.00%    100.00% # attempts to use FU when none available
system.cpu.iq.FU_type_0::No_OpClass             16626      0.22%      0.22% # Type of FU issued
system.cpu.iq.FU_type_0::IntAlu               4397450     58.37%     58.59% # Type of FU issued
system.cpu.iq.FU_type_0::IntMult                20005      0.27%     58.85% # Type of FU issued
system.cpu.iq.FU_type_0::IntDiv                 70002      0.93%     59.78% # Type of FU issued
system.cpu.iq.FU_type_0::FloatAdd                  11      0.00%     59.78% # Type of FU issued
system.cpu.iq.FU_type_0::FloatCmp                   0      0.00%     59.78% # Type of FU issued
system.cpu.iq.FU_type_0::FloatCvt                   0      0.00%     59.78% # Type of FU issued
system.cpu.iq.FU_type_0::FloatMult                  0      0.00%     59.78% # Type of FU issued
system.cpu.iq.FU_type_0::FloatMultAcc               0      0.00%     59.78% # Type of FU issued
system.cpu.iq.FU_type_0::FloatDiv                   0      0.00%     59.78% # Type of FU issued
system.cpu.iq.FU_type_0::FloatMisc                  0      0.00%     59.78% # Type of FU issued
system.cpu.iq.FU_type_0::FloatSqrt                  0      0.00%     59.78% # Type of FU issued
system.cpu.iq.FU_type_0::SimdAdd                  375      0.00%     59.79% # Type of FU issued
system.cpu.iq.FU_type_0::SimdAddAcc                 0      0.00%     59.79% # Type of FU issued
system.cpu.iq.FU_type_0::SimdAlu                   70      0.00%     59.79% # Type of FU issued
system.cpu.iq.FU_type_0::SimdCmp                    0      0.00%     59.79% # Type of FU issued
system.cpu.iq.FU_type_0::SimdCvt                  108      0.00%     59.79% # Type of FU issued
system.cpu.iq.FU_type_0::SimdMisc                 215      0.00%     59.79% # Type of FU issued
system.cpu.iq.FU_type_0::SimdMult                   0      0.00%     59.79% # Type of FU issued
system.cpu.iq.FU_type_0::SimdMultAcc                0      0.00%     59.79% # Type of FU issued
system.cpu.iq.FU_type_0::SimdShift                186      0.00%     59.79% # Type of FU issued
system.cpu.iq.FU_type_0::SimdShiftAcc               0      0.00%     59.79% # Type of FU issued
system.cpu.iq.FU_type_0::SimdSqrt                   0      0.00%     59.79% # Type of FU issued
system.cpu.iq.FU_type_0::SimdFloatAdd               0      0.00%     59.79% # Type of FU issued
system.cpu.iq.FU_type_0::SimdFloatAlu               0      0.00%     59.79% # Type of FU issued
system.cpu.iq.FU_type_0::SimdFloatCmp               0      0.00%     59.79% # Type of FU issued
system.cpu.iq.FU_type_0::SimdFloatCvt               0      0.00%     59.79% # Type of FU issued
system.cpu.iq.FU_type_0::SimdFloatDiv               0      0.00%     59.79% # Type of FU issued
system.cpu.iq.FU_type_0::SimdFloatMisc              0      0.00%     59.79% # Type of FU issued
system.cpu.iq.FU_type_0::SimdFloatMult              0      0.00%     59.79% # Type of FU issued
system.cpu.iq.FU_type_0::SimdFloatMultAcc            0      0.00%     59.79% # Type of FU issued
system.cpu.iq.FU_type_0::SimdFloatSqrt              0      0.00%     59.79% # Type of FU issued
system.cpu.iq.FU_type_0::SimdAes                    0      0.00%     59.79% # Type of FU issued
system.cpu.iq.FU_type_0::SimdAesMix                 0      0.00%     59.79% # Type of FU issued
system.cpu.iq.FU_type_0::SimdSha1Hash               0      0.00%     59.79% # Type of FU issued
system.cpu.iq.FU_type_0::SimdSha1Hash2              0      0.00%     59.79% # Type of FU issued
system.cpu.iq.FU_type_0::SimdSha256Hash             0      0.00%     59.79% # Type of FU issued
system.cpu.iq.FU_type_0::SimdSha256Hash2            0      0.00%     59.79% # Type of FU issued
system.cpu.iq.FU_type_0::SimdShaSigma2              0      0.00%     59.79% # Type of FU issued
system.cpu.iq.FU_type_0::SimdShaSigma3              0      0.00%     59.79% # Type of FU issued
system.cpu.iq.FU_type_0::MemRead              2426870     32.21%     92.00% # Type of FU issued
system.cpu.iq.FU_type_0::MemWrite              601943      7.99%     99.99% # Type of FU issued
system.cpu.iq.FU_type_0::FloatMemRead              65      0.00%     99.99% # Type of FU issued
system.cpu.iq.FU_type_0::FloatMemWrite            424      0.01%    100.00% # Type of FU issued
system.cpu.iq.FU_type_0::IprAccess                  0      0.00%    100.00% # Type of FU issued
system.cpu.iq.FU_type_0::InstPrefetch               0      0.00%    100.00% # Type of FU issued
system.cpu.iq.FU_type_0::total                7534350                       # Type of FU issued
system.cpu.iq.rate                           1.137648                       # Inst issue rate
system.cpu.iq.fu_busy_cnt                      878459                       # FU busy when requested
system.cpu.iq.fu_busy_rate                   0.116594                       # FU busy rate (busy events/executed inst)
system.cpu.iq.int_inst_queue_reads           22605325                       # Number of integer instruction queue reads
system.cpu.iq.int_inst_queue_writes          10984216                       # Number of integer instruction queue writes
system.cpu.iq.int_inst_queue_wakeup_accesses      7249971                       # Number of integer instruction queue wakeup accesses
system.cpu.iq.fp_inst_queue_reads                4501                       # Number of floating instruction queue reads
system.cpu.iq.fp_inst_queue_writes               2023                       # Number of floating instruction queue writes
system.cpu.iq.fp_inst_queue_wakeup_accesses         1954                       # Number of floating instruction queue wakeup accesses
system.cpu.iq.vec_inst_queue_reads                  0                       # Number of vector instruction queue reads
system.cpu.iq.vec_inst_queue_writes                 0                       # Number of vector instruction queue writes
system.cpu.iq.vec_inst_queue_wakeup_accesses            0                       # Number of vector instruction queue wakeup accesses
system.cpu.iq.int_alu_accesses                8393651                       # Number of integer alu accesses
system.cpu.iq.fp_alu_accesses                    2532                       # Number of floating point alu accesses
system.cpu.iq.vec_alu_accesses                      0                       # Number of vector alu accesses
system.cpu.iew.lsq.thread0.forwLoads           355024                       # Number of loads that had data forwarded from stores
system.cpu.iew.lsq.thread0.invAddrLoads             0                       # Number of loads ignored due to an invalid address
system.cpu.iew.lsq.thread0.squashedLoads       855557                       # Number of loads squashed
system.cpu.iew.lsq.thread0.ignoredResponses         1549                       # Number of memory responses ignored because the instruction is squashed
system.cpu.iew.lsq.thread0.memOrderViolation          770                       # Number of memory ordering violations
system.cpu.iew.lsq.thread0.squashedStores       208327                       # Number of stores squashed
system.cpu.iew.lsq.thread0.invAddrSwpfs             0                       # Number of software prefetches ignored due to an invalid address
system.cpu.iew.lsq.thread0.blockedLoads             0                       # Number of blocked loads due to partial load-store forwarding
system.cpu.iew.lsq.thread0.rescheduledLoads            1                       # Number of loads that were rescheduled
system.cpu.iew.lsq.thread0.cacheBlocked            14                       # Number of times an access to memory failed due to the cache being blocked
system.cpu.iew.iewIdleCycles                        0                       # Number of cycles IEW is idle
system.cpu.iew.iewSquashCycles                  92616                       # Number of cycles IEW is squashing
system.cpu.iew.iewBlockCycles                  106942                       # Number of cycles IEW is blocking
system.cpu.iew.iewUnblockCycles                105768                       # Number of cycles IEW is unblocking
system.cpu.iew.iewDispatchedInsts             8549192                       # Number of instructions dispatched to IQ
system.cpu.iew.iewDispSquashedInsts             53363                       # Number of squashed instructions skipped by dispatch
system.cpu.iew.iewDispLoadInsts               2756511                       # Number of dispatched load instructions
system.cpu.iew.iewDispStoreInsts               743615                       # Number of dispatched store instructions
system.cpu.iew.iewDispNonSpecInsts                 36                       # Number of dispatched non-speculative instructions
system.cpu.iew.iewIQFullEvents                    139                       # Number of times the IQ has become full, causing a stall
system.cpu.iew.iewLSQFullEvents                 75800                       # Number of times the LSQ has become full, causing a stall
system.cpu.iew.memOrderViolationEvents            770                       # Number of memory order violations
system.cpu.iew.predictedTakenIncorrect          30693                       # Number of branches that were predicted taken incorrectly
system.cpu.iew.predictedNotTakenIncorrect        70120                       # Number of branches that were predicted not taken incorrectly
system.cpu.iew.branchMispredicts               100813                       # Number of branch mispredicts detected at execute
system.cpu.iew.iewExecutedInsts               7351386                       # Number of executed instructions
system.cpu.iew.iewExecLoadInsts               2358936                       # Number of load instructions executed
system.cpu.iew.iewExecSquashedInsts            182964                       # Number of squashed instructions skipped in execute
system.cpu.iew.exec_swp                             0                       # number of swp insts executed
system.cpu.iew.exec_nop                             0                       # number of nop insts executed
system.cpu.iew.exec_refs                      2949113                       # number of memory reference insts executed
system.cpu.iew.exec_branches                   515525                       # Number of branches executed
system.cpu.iew.exec_stores                     590177                       # Number of stores executed
system.cpu.iew.exec_rate                     1.110022                       # Inst execution rate
system.cpu.iew.wb_sent                        7290950                       # cumulative count of insts sent to commit
system.cpu.iew.wb_count                       7251925                       # cumulative count of insts written-back
system.cpu.iew.wb_producers                   5776641                       # num instructions producing a value
system.cpu.iew.wb_consumers                   7328248                       # num instructions consuming a value
system.cpu.iew.wb_rate                       1.095004                       # insts written-back per cycle
system.cpu.iew.wb_fanout                     0.788270                       # average fanout of values written-back
system.cpu.commit.commitSquashedInsts         2303053                       # The number of squashed insts skipped by commit
system.cpu.commit.commitNonSpecStalls               9                       # The number of times commit has been forced to stall to communicate backwards
system.cpu.commit.branchMispredicts             91864                       # The number of times a branch was mispredicted
system.cpu.commit.committed_per_cycle::samples      6401931                       # Number of insts commited each cycle
system.cpu.commit.committed_per_cycle::mean     0.954855                       # Number of insts commited each cycle
system.cpu.commit.committed_per_cycle::stdev     0.905072                       # Number of insts commited each cycle
system.cpu.commit.committed_per_cycle::underflows            0      0.00%      0.00% # Number of insts commited each cycle
system.cpu.commit.committed_per_cycle::0      2773121     43.32%     43.32% # Number of insts commited each cycle
system.cpu.commit.committed_per_cycle::1      1144706     17.88%     61.20% # Number of insts commited each cycle
system.cpu.commit.committed_per_cycle::2      2484104     38.80%    100.00% # Number of insts commited each cycle
system.cpu.commit.committed_per_cycle::overflows            0      0.00%    100.00% # Number of insts commited each cycle
system.cpu.commit.committed_per_cycle::min_value            0                       # Number of insts commited each cycle
system.cpu.commit.committed_per_cycle::max_value            2                       # Number of insts commited each cycle
system.cpu.commit.committed_per_cycle::total      6401931                       # Number of insts commited each cycle
system.cpu.commit.committedInsts              3893691                       # Number of instructions committed
system.cpu.commit.committedOps                6112914                       # Number of ops (including micro ops) committed
system.cpu.commit.swp_count                         0                       # Number of s/w prefetches committed
system.cpu.commit.refs                        2436242                       # Number of memory references committed
system.cpu.commit.loads                       1900954                       # Number of loads committed
system.cpu.commit.membars                           0                       # Number of memory barriers committed
system.cpu.commit.branches                     453786                       # Number of branches committed
system.cpu.commit.vec_insts                         0                       # Number of committed Vector instructions.
system.cpu.commit.fp_insts                       1943                       # Number of committed floating point instructions.
system.cpu.commit.int_insts                   6086396                       # Number of committed integer instructions.
system.cpu.commit.function_calls                30121                       # Number of function calls committed.
system.cpu.commit.op_class_0::No_OpClass        10099      0.17%      0.17% # Class of committed instruction
system.cpu.commit.op_class_0::IntAlu          3575611     58.49%     58.66% # Class of committed instruction
system.cpu.commit.op_class_0::IntMult           20002      0.33%     58.99% # Class of committed instruction
system.cpu.commit.op_class_0::IntDiv            70000      1.15%     60.13% # Class of committed instruction
system.cpu.commit.op_class_0::FloatAdd             10      0.00%     60.13% # Class of committed instruction
system.cpu.commit.op_class_0::FloatCmp              0      0.00%     60.13% # Class of committed instruction
system.cpu.commit.op_class_0::FloatCvt              0      0.00%     60.13% # Class of committed instruction
system.cpu.commit.op_class_0::FloatMult             0      0.00%     60.13% # Class of committed instruction
system.cpu.commit.op_class_0::FloatMultAcc            0      0.00%     60.13% # Class of committed instruction
system.cpu.commit.op_class_0::FloatDiv              0      0.00%     60.13% # Class of committed instruction
system.cpu.commit.op_class_0::FloatMisc             0      0.00%     60.13% # Class of committed instruction
system.cpu.commit.op_class_0::FloatSqrt             0      0.00%     60.13% # Class of committed instruction
system.cpu.commit.op_class_0::SimdAdd             374      0.01%     60.14% # Class of committed instruction
system.cpu.commit.op_class_0::SimdAddAcc            0      0.00%     60.14% # Class of committed instruction
system.cpu.commit.op_class_0::SimdAlu              68      0.00%     60.14% # Class of committed instruction
system.cpu.commit.op_class_0::SimdCmp               0      0.00%     60.14% # Class of committed instruction
system.cpu.commit.op_class_0::SimdCvt             108      0.00%     60.14% # Class of committed instruction
system.cpu.commit.op_class_0::SimdMisc            214      0.00%     60.14% # Class of committed instruction
system.cpu.commit.op_class_0::SimdMult              0      0.00%     60.14% # Class of committed instruction
system.cpu.commit.op_class_0::SimdMultAcc            0      0.00%     60.14% # Class of committed instruction
system.cpu.commit.op_class_0::SimdShift           186      0.00%     60.15% # Class of committed instruction
system.cpu.commit.op_class_0::SimdShiftAcc            0      0.00%     60.15% # Class of committed instruction
system.cpu.commit.op_class_0::SimdSqrt              0      0.00%     60.15% # Class of committed instruction
system.cpu.commit.op_class_0::SimdFloatAdd            0      0.00%     60.15% # Class of committed instruction
system.cpu.commit.op_class_0::SimdFloatAlu            0      0.00%     60.15% # Class of committed instruction
system.cpu.commit.op_class_0::SimdFloatCmp            0      0.00%     60.15% # Class of committed instruction
system.cpu.commit.op_class_0::SimdFloatCvt            0      0.00%     60.15% # Class of committed instruction
system.cpu.commit.op_class_0::SimdFloatDiv            0      0.00%     60.15% # Class of committed instruction
system.cpu.commit.op_class_0::SimdFloatMisc            0      0.00%     60.15% # Class of committed instruction
system.cpu.commit.op_class_0::SimdFloatMult            0      0.00%     60.15% # Class of committed instruction
system.cpu.commit.op_class_0::SimdFloatMultAcc            0      0.00%     60.15% # Class of committed instruction
system.cpu.commit.op_class_0::SimdFloatSqrt            0      0.00%     60.15% # Class of committed instruction
system.cpu.commit.op_class_0::SimdAes               0      0.00%     60.15% # Class of committed instruction
system.cpu.commit.op_class_0::SimdAesMix            0      0.00%     60.15% # Class of committed instruction
system.cpu.commit.op_class_0::SimdSha1Hash            0      0.00%     60.15% # Class of committed instruction
system.cpu.commit.op_class_0::SimdSha1Hash2            0      0.00%     60.15% # Class of committed instruction
system.cpu.commit.op_class_0::SimdSha256Hash            0      0.00%     60.15% # Class of committed instruction
system.cpu.commit.op_class_0::SimdSha256Hash2            0      0.00%     60.15% # Class of committed instruction
system.cpu.commit.op_class_0::SimdShaSigma2            0      0.00%     60.15% # Class of committed instruction
system.cpu.commit.op_class_0::SimdShaSigma3            0      0.00%     60.15% # Class of committed instruction
system.cpu.commit.op_class_0::MemRead         1900898     31.10%     91.24% # Class of committed instruction
system.cpu.commit.op_class_0::MemWrite         534873      8.75%     99.99% # Class of committed instruction
system.cpu.commit.op_class_0::FloatMemRead           56      0.00%     99.99% # Class of committed instruction
system.cpu.commit.op_class_0::FloatMemWrite          415      0.01%    100.00% # Class of committed instruction
system.cpu.commit.op_class_0::IprAccess             0      0.00%    100.00% # Class of committed instruction
system.cpu.commit.op_class_0::InstPrefetch            0      0.00%    100.00% # Class of committed instruction
system.cpu.commit.op_class_0::total           6112914                       # Class of committed instruction
system.cpu.commit.bw_lim_events               2484104                       # number cycles where commit BW limit reached
system.cpu.rob.rob_reads                     12333794                       # The number of ROB reads
system.cpu.rob.rob_writes                    17028901                       # The number of ROB writes
system.cpu.timesIdled                             266                       # Number of times that the entire CPU went into an idle state and unscheduled itself
system.cpu.idleCycles                           23865                       # Total number of cycles that the CPU has spent unscheduled due to idling
system.cpu.committedInsts                     3893691                       # Number of Instructions Simulated
system.cpu.committedOps                       6112914                       # Number of Ops (including micro ops) Simulated
system.cpu.cpi                               1.700890                       # CPI: Cycles Per Instruction
system.cpu.cpi_total                         1.700890                       # CPI: Total CPI of All Threads
system.cpu.ipc                               0.587928                       # IPC: Instructions Per Cycle
system.cpu.ipc_total                         0.587928                       # IPC: Total IPC of All Threads
system.cpu.int_regfile_reads                 11965728                       # number of integer regfile reads
system.cpu.int_regfile_writes                 6312499                       # number of integer regfile writes
system.cpu.fp_regfile_reads                      3780                       # number of floating regfile reads
system.cpu.fp_regfile_writes                     1484                       # number of floating regfile writes
system.cpu.cc_regfile_reads                   1945281                       # number of cc regfile reads
system.cpu.cc_regfile_writes                  1843085                       # number of cc regfile writes
system.cpu.misc_regfile_reads                 4044977                       # number of misc regfile reads
system.cpu.dcache.tags.pwrStateResidencyTicks::UNDEFINED   3311369500                       # Cumulative time (in ticks) in various power states
system.cpu.dcache.tags.tagsinuse           252.372740                       # Cycle average of tags in use
system.cpu.dcache.tags.total_refs             2538695                       # Total number of references to valid blocks.
system.cpu.dcache.tags.sampled_refs              2731                       # Sample count of references to valid blocks.
system.cpu.dcache.tags.avg_refs            929.584401                       # Average number of references to valid blocks.
system.cpu.dcache.tags.warmup_cycle            170000                       # Cycle when the warmup percentage was hit.
system.cpu.dcache.tags.occ_blocks::.cpu.data   252.372740                       # Average occupied blocks per requestor
system.cpu.dcache.tags.occ_percent::.cpu.data     0.985831                       # Average percentage of cache occupancy
system.cpu.dcache.tags.occ_percent::total     0.985831                       # Average percentage of cache occupancy
system.cpu.dcache.tags.occ_task_id_blocks::1024          256                       # Occupied blocks per task id
system.cpu.dcache.tags.age_task_id_blocks_1024::0           64                       # Occupied blocks per task id
system.cpu.dcache.tags.age_task_id_blocks_1024::1          190                       # Occupied blocks per task id
system.cpu.dcache.tags.age_task_id_blocks_1024::2            1                       # Occupied blocks per task id
system.cpu.dcache.tags.age_task_id_blocks_1024::3            1                       # Occupied blocks per task id
system.cpu.dcache.tags.occ_task_id_percent::1024            1                       # Percentage of cache occupancy per task id
system.cpu.dcache.tags.tag_accesses           5080981                       # Number of tag accesses
system.cpu.dcache.tags.data_accesses          5080981                       # Number of data accesses
system.cpu.dcache.pwrStateResidencyTicks::UNDEFINED   3311369500                       # Cumulative time (in ticks) in various power states
system.cpu.dcache.ReadReq_hits::.cpu.data      2002178                       # number of ReadReq hits
system.cpu.dcache.ReadReq_hits::total         2002178                       # number of ReadReq hits
system.cpu.dcache.WriteReq_hits::.cpu.data       533786                       # number of WriteReq hits
system.cpu.dcache.WriteReq_hits::total         533786                       # number of WriteReq hits
system.cpu.dcache.demand_hits::.cpu.data      2535964                       # number of demand (read+write) hits
system.cpu.dcache.demand_hits::total          2535964                       # number of demand (read+write) hits
system.cpu.dcache.overall_hits::.cpu.data      2535964                       # number of overall hits
system.cpu.dcache.overall_hits::total         2535964                       # number of overall hits
system.cpu.dcache.ReadReq_misses::.cpu.data         1659                       # number of ReadReq misses
system.cpu.dcache.ReadReq_misses::total          1659                       # number of ReadReq misses
system.cpu.dcache.WriteReq_misses::.cpu.data         1502                       # number of WriteReq misses
system.cpu.dcache.WriteReq_misses::total         1502                       # number of WriteReq misses
system.cpu.dcache.demand_misses::.cpu.data         3161                       # number of demand (read+write) misses
system.cpu.dcache.demand_misses::total           3161                       # number of demand (read+write) misses
system.cpu.dcache.overall_misses::.cpu.data         3161                       # number of overall misses
system.cpu.dcache.overall_misses::total          3161                       # number of overall misses
system.cpu.dcache.ReadReq_miss_latency::.cpu.data     35516500                       # number of ReadReq miss cycles
system.cpu.dcache.ReadReq_miss_latency::total     35516500                       # number of ReadReq miss cycles
system.cpu.dcache.WriteReq_miss_latency::.cpu.data     71723000                       # number of WriteReq miss cycles
system.cpu.dcache.WriteReq_miss_latency::total     71723000                       # number of WriteReq miss cycles
system.cpu.dcache.demand_miss_latency::.cpu.data    107239500                       # number of demand (read+write) miss cycles
system.cpu.dcache.demand_miss_latency::total    107239500                       # number of demand (read+write) miss cycles
system.cpu.dcache.overall_miss_latency::.cpu.data    107239500                       # number of overall miss cycles
system.cpu.dcache.overall_miss_latency::total    107239500                       # number of overall miss cycles
system.cpu.dcache.ReadReq_accesses::.cpu.data      2003837                       # number of ReadReq accesses(hits+misses)
system.cpu.dcache.ReadReq_accesses::total      2003837                       # number of ReadReq accesses(hits+misses)
system.cpu.dcache.WriteReq_accesses::.cpu.data       535288                       # number of WriteReq accesses(hits+misses)
system.cpu.dcache.WriteReq_accesses::total       535288                       # number of WriteReq accesses(hits+misses)
system.cpu.dcache.demand_accesses::.cpu.data      2539125                       # number of demand (read+write) accesses
system.cpu.dcache.demand_accesses::total      2539125                       # number of demand (read+write) accesses
system.cpu.dcache.overall_accesses::.cpu.data      2539125                       # number of overall (read+write) accesses
system.cpu.dcache.overall_accesses::total      2539125                       # number of overall (read+write) accesses
system.cpu.dcache.ReadReq_miss_rate::.cpu.data     0.000828                       # miss rate for ReadReq accesses
system.cpu.dcache.ReadReq_miss_rate::total     0.000828                       # miss rate for ReadReq accesses
system.cpu.dcache.WriteReq_miss_rate::.cpu.data     0.002806                       # miss rate for WriteReq accesses
system.cpu.dcache.WriteReq_miss_rate::total     0.002806                       # miss rate for WriteReq accesses
system.cpu.dcache.demand_miss_rate::.cpu.data     0.001245                       # miss rate for demand accesses
system.cpu.dcache.demand_miss_rate::total     0.001245                       # miss rate for demand accesses
system.cpu.dcache.overall_miss_rate::.cpu.data     0.001245                       # miss rate for overall accesses
system.cpu.dcache.overall_miss_rate::total     0.001245                       # miss rate for overall accesses
system.cpu.dcache.ReadReq_avg_miss_latency::.cpu.data 21408.378541                       # average ReadReq miss latency
system.cpu.dcache.ReadReq_avg_miss_latency::total 21408.378541                       # average ReadReq miss latency
[...]
system.l3bus.snoop_fanout::overflows                0      0.00%    100.00% # Request fanout histogram
system.l3bus.snoop_fanout::min_value                0                       # Request fanout histogram
system.l3bus.snoop_fanout::max_value                0                       # Request fanout histogram
system.l3bus.snoop_fanout::total                 1270                       # Request fanout histogram
system.l3bus.reqLayer0.occupancy               635500                       # Layer occupancy (ticks)
system.l3bus.reqLayer0.utilization                0.0                       # Layer utilization (%)
system.l3bus.respLayer0.occupancy             3175000                       # Layer occupancy (ticks)
system.l3bus.respLayer0.utilization               0.1                       # Layer utilization (%)
system.l3cache.tags.pwrStateResidencyTicks::UNDEFINED   3311369500                       # Cumulative time (in ticks) in various power states
system.l3cache.tags.tagsinuse              994.380098                       # Cycle average of tags in use
system.l3cache.tags.total_refs                   1270                       # Total number of references to valid blocks.
system.l3cache.tags.sampled_refs                 1270                       # Sample count of references to valid blocks.
system.l3cache.tags.avg_refs                        1                       # Average number of references to valid blocks.
system.l3cache.tags.warmup_cycle                76000                       # Cycle when the warmup percentage was hit.
system.l3cache.tags.occ_blocks::.cpu.inst   396.157701                       # Average occupied blocks per requestor
system.l3cache.tags.occ_blocks::.cpu.data   598.222397                       # Average occupied blocks per requestor
system.l3cache.tags.occ_percent::.cpu.inst     0.024180                       # Average percentage of cache occupancy
system.l3cache.tags.occ_percent::.cpu.data     0.036513                       # Average percentage of cache occupancy
system.l3cache.tags.occ_percent::total       0.060692                       # Average percentage of cache occupancy
system.l3cache.tags.occ_task_id_blocks::1024         1270                       # Occupied blocks per task id
system.l3cache.tags.age_task_id_blocks_1024::0           54                       # Occupied blocks per task id
system.l3cache.tags.age_task_id_blocks_1024::2          156                       # Occupied blocks per task id
system.l3cache.tags.age_task_id_blocks_1024::3         1060                       # Occupied blocks per task id
system.l3cache.tags.occ_task_id_percent::1024     0.077515                       # Percentage of cache occupancy per task id
system.l3cache.tags.tag_accesses                21590                       # Number of tag accesses
system.l3cache.tags.data_accesses               21590                       # Number of data accesses
system.l3cache.pwrStateResidencyTicks::UNDEFINED   3311369500                       # Cumulative time (in ticks) in various power states
system.l3cache.ReadExReq_misses::.cpu.data          722                       # number of ReadExReq misses
system.l3cache.ReadExReq_misses::total            722                       # number of ReadExReq misses
system.l3cache.ReadSharedReq_misses::.cpu.inst          438                       # number of ReadSharedReq misses
system.l3cache.ReadSharedReq_misses::.cpu.data          110                       # number of ReadSharedReq misses
system.l3cache.ReadSharedReq_misses::total          548                       # number of ReadSharedReq misses
system.l3cache.demand_misses::.cpu.inst           438                       # number of demand (read+write) misses
system.l3cache.demand_misses::.cpu.data           832                       # number of demand (read+write) misses
system.l3cache.demand_misses::total              1270                       # number of demand (read+write) misses
system.l3cache.overall_misses::.cpu.inst          438                       # number of overall misses
system.l3cache.overall_misses::.cpu.data          832                       # number of overall misses
system.l3cache.overall_misses::total             1270                       # number of overall misses
system.l3cache.ReadExReq_miss_latency::.cpu.data     51502500                       # number of ReadExReq miss cycles
system.l3cache.ReadExReq_miss_latency::total     51502500                       # number of ReadExReq miss cycles
system.l3cache.ReadSharedReq_miss_latency::.cpu.inst     33528000                       # number of ReadSharedReq miss cycles
system.l3cache.ReadSharedReq_miss_latency::.cpu.data      8588500                       # number of ReadSharedReq miss cycles
system.l3cache.ReadSharedReq_miss_latency::total     42116500                       # number of ReadSharedReq miss cycles
system.l3cache.demand_miss_latency::.cpu.inst     33528000                       # number of demand (read+write) miss cycles
system.l3cache.demand_miss_latency::.cpu.data     60091000                       # number of demand (read+write) miss cycles
system.l3cache.demand_miss_latency::total     93619000                       # number of demand (read+write) miss cycles
system.l3cache.overall_miss_latency::.cpu.inst     33528000                       # number of overall miss cycles
system.l3cache.overall_miss_latency::.cpu.data     60091000                       # number of overall miss cycles
system.l3cache.overall_miss_latency::total     93619000                       # number of overall miss cycles
system.l3cache.ReadExReq_accesses::.cpu.data          722                       # number of ReadExReq accesses(hits+misses)
system.l3cache.ReadExReq_accesses::total          722                       # number of ReadExReq accesses(hits+misses)
system.l3cache.ReadSharedReq_accesses::.cpu.inst          438                       # number of ReadSharedReq accesses(hits+misses)
system.l3cache.ReadSharedReq_accesses::.cpu.data          110                       # number of ReadSharedReq accesses(hits+misses)
system.l3cache.ReadSharedReq_accesses::total          548                       # number of ReadSharedReq accesses(hits+misses)
system.l3cache.demand_accesses::.cpu.inst          438                       # number of demand (read+write) accesses
system.l3cache.demand_accesses::.cpu.data          832                       # number of demand (read+write) accesses
system.l3cache.demand_accesses::total            1270                       # number of demand (read+write) accesses
system.l3cache.overall_accesses::.cpu.inst          438                       # number of overall (read+write) accesses
system.l3cache.overall_accesses::.cpu.data          832                       # number of overall (read+write) accesses
system.l3cache.overall_accesses::total           1270                       # number of overall (read+write) accesses
system.l3cache.ReadExReq_miss_rate::.cpu.data            1                       # miss rate for ReadExReq accesses
system.l3cache.ReadExReq_miss_rate::total            1                       # miss rate for ReadExReq accesses
system.l3cache.ReadSharedReq_miss_rate::.cpu.inst            1                       # miss rate for ReadSharedReq accesses
system.l3cache.ReadSharedReq_miss_rate::.cpu.data            1                       # miss rate for ReadSharedReq accesses
system.l3cache.ReadSharedReq_miss_rate::total            1                       # miss rate for ReadSharedReq accesses
system.l3cache.demand_miss_rate::.cpu.inst            1                       # miss rate for demand accesses
system.l3cache.demand_miss_rate::.cpu.data            1                       # miss rate for demand accesses
system.l3cache.demand_miss_rate::total              1                       # miss rate for demand accesses
system.l3cache.overall_miss_rate::.cpu.inst            1                       # miss rate for overall accesses
system.l3cache.overall_miss_rate::.cpu.data            1                       # miss rate for overall accesses
system.l3cache.overall_miss_rate::total             1                       # miss rate for overall accesses
system.l3cache.ReadExReq_avg_miss_latency::.cpu.data 71333.102493                       # average ReadExReq miss latency
system.l3cache.ReadExReq_avg_miss_latency::total 71333.102493                       # average ReadExReq miss latency
system.l3cache.ReadSharedReq_avg_miss_latency::.cpu.inst 76547.945205                       # average ReadSharedReq miss latency
system.l3cache.ReadSharedReq_avg_miss_latency::.cpu.data 78077.272727                       # average ReadSharedReq miss latency
system.l3cache.ReadSharedReq_avg_miss_latency::total 76854.927007                       # average ReadSharedReq miss latency
system.l3cache.demand_avg_miss_latency::.cpu.inst 76547.945205                       # average overall miss latency
system.l3cache.demand_avg_miss_latency::.cpu.data 72224.759615                       # average overall miss latency
system.l3cache.demand_avg_miss_latency::total 73715.748031                       # average overall miss latency
system.l3cache.overall_avg_miss_latency::.cpu.inst 76547.945205                       # average overall miss latency
system.l3cache.overall_avg_miss_latency::.cpu.data 72224.759615                       # average overall miss latency
system.l3cache.overall_avg_miss_latency::total 73715.748031                       # average overall miss latency
system.l3cache.blocked_cycles::no_mshrs             0                       # number of cycles access was blocked
system.l3cache.blocked_cycles::no_targets            0                       # number of cycles access was blocked
system.l3cache.blocked::no_mshrs                    0                       # number of cycles access was blocked
system.l3cache.blocked::no_targets                  0                       # number of cycles access was blocked
system.l3cache.avg_blocked_cycles::no_mshrs          nan                       # average number of cycles each access was blocked
system.l3cache.avg_blocked_cycles::no_targets          nan                       # average number of cycles each access was blocked
system.l3cache.ReadExReq_mshr_misses::.cpu.data          722                       # number of ReadExReq MSHR misses
system.l3cache.ReadExReq_mshr_misses::total          722                       # number of ReadExReq MSHR misses
system.l3cache.ReadSharedReq_mshr_misses::.cpu.inst          438                       # number of ReadSharedReq MSHR misses
system.l3cache.ReadSharedReq_mshr_misses::.cpu.data          110                       # number of ReadSharedReq MSHR misses
system.l3cache.ReadSharedReq_mshr_misses::total          548                       # number of ReadSharedReq MSHR misses
system.l3cache.demand_mshr_misses::.cpu.inst          438                       # number of demand (read+write) MSHR misses
system.l3cache.demand_mshr_misses::.cpu.data          832                       # number of demand (read+write) MSHR misses
system.l3cache.demand_mshr_misses::total         1270                       # number of demand (read+write) MSHR misses
system.l3cache.overall_mshr_misses::.cpu.inst          438                       # number of overall MSHR misses
system.l3cache.overall_mshr_misses::.cpu.data          832                       # number of overall MSHR misses
system.l3cache.overall_mshr_misses::total         1270                       # number of overall MSHR misses
system.l3cache.ReadExReq_mshr_miss_latency::.cpu.data     50058500                       # number of ReadExReq MSHR miss cycles
system.l3cache.ReadExReq_mshr_miss_latency::total     50058500                       # number of ReadExReq MSHR miss cycles
system.l3cache.ReadSharedReq_mshr_miss_latency::.cpu.inst     32652000                       # number of ReadSharedReq MSHR miss cycles
system.l3cache.ReadSharedReq_mshr_miss_latency::.cpu.data      8368500                       # number of ReadSharedReq MSHR miss cycles
system.l3cache.ReadSharedReq_mshr_miss_latency::total     41020500                       # number of ReadSharedReq MSHR miss cycles
system.l3cache.demand_mshr_miss_latency::.cpu.inst     32652000                       # number of demand (read+write) MSHR miss cycles
system.l3cache.demand_mshr_miss_latency::.cpu.data     58427000                       # number of demand (read+write) MSHR miss cycles
system.l3cache.demand_mshr_miss_latency::total     91079000                       # number of demand (read+write) MSHR miss cycles
system.l3cache.overall_mshr_miss_latency::.cpu.inst     32652000                       # number of overall MSHR miss cycles
system.l3cache.overall_mshr_miss_latency::.cpu.data     58427000                       # number of overall MSHR miss cycles
system.l3cache.overall_mshr_miss_latency::total     91079000                       # number of overall MSHR miss cycles
system.l3cache.ReadExReq_mshr_miss_rate::.cpu.data            1                       # mshr miss rate for ReadExReq accesses
system.l3cache.ReadExReq_mshr_miss_rate::total            1                       # mshr miss rate for ReadExReq accesses
system.l3cache.ReadSharedReq_mshr_miss_rate::.cpu.inst            1                       # mshr miss rate for ReadSharedReq accesses
system.l3cache.ReadSharedReq_mshr_miss_rate::.cpu.data            1                       # mshr miss rate for ReadSharedReq accesses
system.l3cache.ReadSharedReq_mshr_miss_rate::total            1                       # mshr miss rate for ReadSharedReq accesses
system.l3cache.demand_mshr_miss_rate::.cpu.inst            1                       # mshr miss rate for demand accesses
system.l3cache.demand_mshr_miss_rate::.cpu.data            1                       # mshr miss rate for demand accesses
system.l3cache.demand_mshr_miss_rate::total            1                       # mshr miss rate for demand accesses
system.l3cache.overall_mshr_miss_rate::.cpu.inst            1                       # mshr miss rate for overall accesses
system.l3cache.overall_mshr_miss_rate::.cpu.data            1                       # mshr miss rate for overall accesses
system.l3cache.overall_mshr_miss_rate::total            1                       # mshr miss rate for overall accesses
system.l3cache.ReadExReq_avg_mshr_miss_latency::.cpu.data 69333.102493                       # average ReadExReq mshr miss latency
system.l3cache.ReadExReq_avg_mshr_miss_latency::total 69333.102493                       # average ReadExReq mshr miss latency
system.l3cache.ReadSharedReq_avg_mshr_miss_latency::.cpu.inst 74547.945205                       # average ReadSharedReq mshr miss latency
system.l3cache.ReadSharedReq_avg_mshr_miss_latency::.cpu.data 76077.272727                       # average ReadSharedReq mshr miss latency
system.l3cache.ReadSharedReq_avg_mshr_miss_latency::total 74854.927007                       # average ReadSharedReq mshr miss latency
system.l3cache.demand_avg_mshr_miss_latency::.cpu.inst 74547.945205                       # average overall mshr miss latency
system.l3cache.demand_avg_mshr_miss_latency::.cpu.data 70224.759615                       # average overall mshr miss latency
system.l3cache.demand_avg_mshr_miss_latency::total 71715.748031                       # average overall mshr miss latency
system.l3cache.overall_avg_mshr_miss_latency::.cpu.inst 74547.945205                       # average overall mshr miss latency
system.l3cache.overall_avg_mshr_miss_latency::.cpu.data 70224.759615                       # average overall mshr miss latency
system.l3cache.overall_avg_mshr_miss_latency::total 71715.748031                       # average overall mshr miss latency
system.l3cache.replacements                         0                       # number of replacements
system.membus.snoop_filter.tot_requests          1270                       # Total number of requests made to the snoop filter.
system.membus.snoop_filter.hit_single_requests            0                       # Number of requests hitting in the snoop filter with a single holder of the requested data.
system.membus.snoop_filter.hit_multi_requests            0                       # Number of requests hitting in the snoop filter with multiple (>1) holders of the requested data.
system.membus.snoop_filter.tot_snoops               0                       # Total number of snoops made to the snoop filter.
system.membus.snoop_filter.hit_single_snoops            0                       # Number of snoops hitting in the snoop filter with a single holder of the requested data.
system.membus.snoop_filter.hit_multi_snoops            0                       # Number of snoops hitting in the snoop filter with multiple (>1) holders of the requested data.
system.membus.pwrStateResidencyTicks::UNDEFINED   3311369500                       # Cumulative time (in ticks) in various power states
system.membus.trans_dist::ReadResp                548                       # Transaction distribution
system.membus.trans_dist::ReadExReq               722                       # Transaction distribution
system.membus.trans_dist::ReadExResp              722                       # Transaction distribution
system.membus.trans_dist::ReadSharedReq           548                       # Transaction distribution
system.membus.pkt_count_system.l3cache.mem_side::system.mem_ctrl.port         2540                       # Packet count per connected master and slave (bytes)
system.membus.pkt_count_system.l3cache.mem_side::total         2540                       # Packet count per connected master and slave (bytes)
system.membus.pkt_count::total                   2540                       # Packet count per connected master and slave (bytes)
system.membus.pkt_size_system.l3cache.mem_side::system.mem_ctrl.port        81280                       # Cumulative packet size per connected master and slave (bytes)
system.membus.pkt_size_system.l3cache.mem_side::total        81280                       # Cumulative packet size per connected master and slave (bytes)
system.membus.pkt_size::total                   81280                       # Cumulative packet size per connected master and slave (bytes)
system.membus.snoops                                0                       # Total snoops (count)
system.membus.snoopTraffic                          0                       # Total snoop traffic (bytes)
system.membus.snoop_fanout::samples              1270                       # Request fanout histogram
system.membus.snoop_fanout::mean                    0                       # Request fanout histogram
system.membus.snoop_fanout::stdev                   0                       # Request fanout histogram
system.membus.snoop_fanout::underflows              0      0.00%      0.00% # Request fanout histogram
system.membus.snoop_fanout::0                    1270    100.00%    100.00% # Request fanout histogram
system.membus.snoop_fanout::1                       0      0.00%    100.00% # Request fanout histogram
system.membus.snoop_fanout::overflows               0      0.00%    100.00% # Request fanout histogram
system.membus.snoop_fanout::min_value               0                       # Request fanout histogram
system.membus.snoop_fanout::max_value               0                       # Request fanout histogram
system.membus.snoop_fanout::total                1270                       # Request fanout histogram
system.membus.reqLayer0.occupancy              635000                       # Layer occupancy (ticks)
system.membus.reqLayer0.utilization               0.0                       # Layer utilization (%)
system.membus.respLayer0.occupancy            3456000                       # Layer occupancy (ticks)
system.membus.respLayer0.utilization              0.1                       # Layer utilization (%)

---------- End Simulation Statistics   ----------
