
---------- Begin Simulation Statistics ----------
sim_seconds                                  0.003318                       # Number of seconds simulated
sim_ticks                                  3318212000                       # Number of ticks simulated
final_tick                                 3318212000                       # Number of ticks from beginning of simulation (restored from checkpoints and never reset)
sim_freq                                 1000000000000                       # Frequency of simulated ticks
host_inst_rate                                 145662                       # Simulator instruction rate (inst/s)
host_op_rate                                   228682                       # Simulator op (including micro ops) rate (op/s)
host_tick_rate                              124133200                       # Simulator tick rate (ticks/s)
host_mem_usage                                 648588                       # Number of bytes of host memory used
host_seconds                                    26.73                       # Real time elapsed on the host
sim_insts                                     3893691                       # Number of instructions simulated
sim_ops                                       6112914                       # Number of ops (including micro ops) simulated
system.clk_domain.voltage_domain.voltage            1                       # Voltage in Volts
system.clk_domain.clock                           500                       # Clock period in ticks
system.mem_ctrl.pwrStateResidencyTicks::UNDEFINED   3318212000                       # Cumulative time (in ticks) in various power states
system.mem_ctrl.bytes_read::.cpu.inst           28032                       # Number of bytes read from this memory
system.mem_ctrl.bytes_read::.cpu.data           53248                       # Number of bytes read from this memory
system.mem_ctrl.bytes_read::total               81280                       # Number of bytes read from this memory
system.mem_ctrl.bytes_inst_read::.cpu.inst        28032                       # Number of instructions bytes read from this memory
system.mem_ctrl.bytes_inst_read::total          28032                       # Number of instructions bytes read from this memory
system.mem_ctrl.num_reads::.cpu.inst              438                       # Number of read requests responded to by this memory
system.mem_ctrl.num_reads::.cpu.data              832                       # Number of read requests responded to by this memory
system.mem_ctrl.num_reads::total                 1270                       # Number of read requests responded to by this memory
system.mem_ctrl.bw_read::.cpu.inst            8447923                       # Total read bandwidth from this memory (bytes/s)
system.mem_ctrl.bw_read::.cpu.data           16047197                       # Total read bandwidth from this memory (bytes/s)
system.mem_ctrl.bw_read::total               24495120                       # Total read bandwidth from this memory (bytes/s)
system.mem_ctrl.bw_inst_read::.cpu.inst       8447923                       # Instruction read bandwidth from this memory (bytes/s)
system.mem_ctrl.bw_inst_read::total           8447923                       # Instruction read bandwidth from this memory (bytes/s)
system.mem_ctrl.bw_total::.cpu.inst           8447923                       # Total bandwidth to/from this memory (bytes/s)
system.mem_ctrl.bw_total::.cpu.data          16047197                       # Total bandwidth to/from this memory (bytes/s)
system.mem_ctrl.bw_total::total              24495120                       # Total bandwidth to/from this memory (bytes/s)
system.mem_ctrl.avgPriority_.cpu.inst::samples       438.00                       # Average QoS priority value for accepted requests
system.mem_ctrl.avgPriority_.cpu.data::samples       832.00                       # Average QoS priority value for accepted requests
system.mem_ctrl.priorityMinLatency       0.000000018750                       # per QoS priority minimum request to response latency (s)
system.mem_ctrl.priorityMaxLatency       0.000001105750                       # per QoS priority maximum request to response latency (s)
system.mem_ctrl.numReadWriteTurnArounds             0                       # Number of turnarounds from READ to WRITE
system.mem_ctrl.numWriteReadTurnArounds             0                       # Number of turnarounds from WRITE to READ
system.mem_ctrl.numStayReadState                 2593                       # Number of times bus staying in READ state
system.mem_ctrl.numStayWriteState                   0                       # Number of times bus staying in WRITE state
system.mem_ctrl.readReqs                         1270                       # Number of read requests accepted
system.mem_ctrl.writeReqs                           0                       # Number of write requests accepted
system.mem_ctrl.readBursts                       1270                       # Number of DRAM read bursts, including those serviced by the write queue
system.mem_ctrl.writeBursts                         0                       # Number of DRAM write bursts, including those merged in the write queue
system.mem_ctrl.bytesReadDRAM                   81280                       # Total number of bytes read from DRAM
system.mem_ctrl.bytesReadWrQ                        0                       # Total number of bytes read from write queue
system.mem_ctrl.bytesWritten                        0                       # Total number of bytes written to DRAM
system.mem_ctrl.bytesReadSys                    81280                       # Total read bytes from the system interface side
system.mem_ctrl.bytesWrittenSys                     0                       # Total written bytes from the system interface side
system.mem_ctrl.servicedByWrQ                       0                       # Number of DRAM read bursts serviced by the write queue
system.mem_ctrl.mergedWrBursts                      0                       # Number of DRAM write bursts merged with an existing one
system.mem_ctrl.neitherReadNorWriteReqs             0                       # Number of requests that are neither read nor write
system.mem_ctrl.perBankRdBursts::0                134                       # Per bank write bursts
system.mem_ctrl.perBankRdBursts::1                 82                       # Per bank write bursts
system.mem_ctrl.perBankRdBursts::2                149                       # Per bank write bursts
system.mem_ctrl.perBankRdBursts::3                139                       # Per bank write bursts
system.mem_ctrl.perBankRdBursts::4                130                       # Per bank write bursts
system.mem_ctrl.perBankRdBursts::5                138                       # Per bank write bursts
system.mem_ctrl.perBankRdBursts::6                 64                       # Per bank write bursts
system.mem_ctrl.perBankRdBursts::7                 39                       # Per bank write bursts
system.mem_ctrl.perBankRdBursts::8                  2                       # Per bank write bursts
system.mem_ctrl.perBankRdBursts::9                 15                       # Per bank write bursts
system.mem_ctrl.perBankRdBursts::10                26                       # Per bank write bursts
system.mem_ctrl.perBankRdBursts::11                12                       # Per bank write bursts
system.mem_ctrl.perBankRdBursts::12                48                       # Per bank write bursts
system.mem_ctrl.perBankRdBursts::13                83                       # Per bank write bursts
system.mem_ctrl.perBankRdBursts::14               117                       # Per bank write bursts
system.mem_ctrl.perBankRdBursts::15                92                       # Per bank write bursts
system.mem_ctrl.perBankWrBursts::0                  0                       # Per bank write bursts
system.mem_ctrl.perBankWrBursts::1                  0                       # Per bank write bursts
system.mem_ctrl.perBankWrBursts::2                  0                       # Per bank write bursts
system.mem_ctrl.perBankWrBursts::3                  0                       # Per bank write bursts
system.mem_ctrl.perBankWrBursts::4                  0                       # Per bank write bursts
system.mem_ctrl.perBankWrBursts::5                  0                       # Per bank write bursts
system.mem_ctrl.perBankWrBursts::6                  0                       # Per bank write bursts
system.mem_ctrl.perBankWrBursts::7                  0                       # Per bank write bursts
system.mem_ctrl.perBankWrBursts::8                  0                       # Per bank write bursts
system.mem_ctrl.perBankWrBursts::9                  0                       # Per bank write bursts
system.mem_ctrl.perBankWrBursts::10                 0                       # Per bank write bursts
system.mem_ctrl.perBankWrBursts::11                 0                       # Per bank write bursts
system.mem_ctrl.perBankWrBursts::12                 0                       # Per bank write bursts
system.mem_ctrl.perBankWrBursts::13                 0                       # Per bank write bursts
system.mem_ctrl.perBankWrBursts::14                 0                       # Per bank write bursts
system.mem_ctrl.perBankWrBursts::15                 0                       # Per bank write bursts
system.mem_ctrl.numRdRetry                          0                       # Number of times read queue was full causing retry
system.mem_ctrl.numWrRetry                          0                       # Number of times write queue was full causing retry
system.mem_ctrl.totGap                     3318120500                       # Total gap between requests
system.mem_ctrl.readPktSize::0                      0                       # Read request sizes (log2)
system.mem_ctrl.readPktSize::1                      0                       # Read request sizes (log2)
system.mem_ctrl.readPktSize::2                      0                       # Read request sizes (log2)
system.mem_ctrl.readPktSize::3                      0                       # Read request sizes (log2)
system.mem_ctrl.readPktSize::4                      0                       # Read request sizes (log2)
system.mem_ctrl.readPktSize::5                      0                       # Read request sizes (log2)
system.mem_ctrl.readPktSize::6                   1270                       # Read request sizes (log2)
system.mem_ctrl.writePktSize::0                     0                       # Write request sizes (log2)
system.mem_ctrl.writePktSize::1                     0                       # Write request sizes (log2)
system.mem_ctrl.writePktSize::2                     0                       # Write request sizes (log2)
system.mem_ctrl.writePktSize::3                     0                       # Write request sizes (log2)
system.mem_ctrl.writePktSize::4                     0                       # Write request sizes (log2)
system.mem_ctrl.writePktSize::5                     0                       # Write request sizes (log2)
system.mem_ctrl.writePktSize::6                     0                       # Write request sizes (log2)
system.mem_ctrl.rdQLenPdf::0                     1044                       # What read queue length does an incoming req see
system.mem_ctrl.rdQLenPdf::1                      171                       # What read queue length does an incoming req see
system.mem_ctrl.rdQLenPdf::2                       44                       # What read queue length does an incoming req see
system.mem_ctrl.rdQLenPdf::3                        8                       # What read queue length does an incoming req see
system.mem_ctrl.rdQLenPdf::4                        3                       # What read queue length does an incoming req see
system.mem_ctrl.rdQLenPdf::5                        0                       # What read queue length does an incoming req see
system.mem_ctrl.rdQLenPdf::6                        0                       # What read queue length does an incoming req see
system.mem_ctrl.rdQLenPdf::7                        0                       # What read queue length does an incoming req see
system.mem_ctrl.rdQLenPdf::8                        0                       # What read queue length does an incoming req see
system.mem_ctrl.rdQLenPdf::9                        0                       # What read queue length does an incoming req see
system.mem_ctrl.rdQLenPdf::10                       0                       # What read queue length does an incoming req see
system.mem_ctrl.rdQLenPdf::11                       0                       # What read queue length does an incoming req see
system.mem_ctrl.rdQLenPdf::12                       0                       # What read queue length does an incoming req see
system.mem_ctrl.rdQLenPdf::13                       0                       # What read queue length does an incoming req see
system.mem_ctrl.rdQLenPdf::14                       0                       # What read queue length does an incoming req see
system.mem_ctrl.rdQLenPdf::15                       0                       # What read queue length does an incoming req see
system.mem_ctrl.rdQLenPdf::16                       0                       # What read queue length does an incoming req see
system.mem_ctrl.rdQLenPdf::17                       0                       # What read queue length does an incoming req see
system.mem_ctrl.rdQLenPdf::18                       0                       # What read queue length does an incoming req see
system.mem_ctrl.rdQLenPdf::19                       0                       # What read queue length does an incoming req see
system.mem_ctrl.rdQLenPdf::20                       0                       # What read queue length does an incoming req see
system.mem_ctrl.rdQLenPdf::21                       0                       # What read queue length does an incoming req see
system.mem_ctrl.rdQLenPdf::22                       0                       # What read queue length does an incoming req see
system.mem_ctrl.rdQLenPdf::23                       0                       # What read queue length does an incoming req see
system.mem_ctrl.rdQLenPdf::24                       0                       # What read queue length does an incoming req see
system.mem_ctrl.rdQLenPdf::25                       0                       # What read queue length does an incoming req see
system.mem_ctrl.rdQLenPdf::26                       0                       # What read queue length does an incoming req see
system.mem_ctrl.rdQLenPdf::27                       0                       # What read queue length does an incoming req see
system.mem_ctrl.rdQLenPdf::28                       0                       # What read queue length does an incoming req see
system.mem_ctrl.rdQLenPdf::29                       0                       # What read queue length does an incoming req see
system.mem_ctrl.rdQLenPdf::30                       0                       # What read queue length does an incoming req see
system.mem_ctrl.rdQLenPdf::31                       0                       # What read queue length does an incoming req see
system.mem_ctrl.wrQLenPdf::0                        0                       # What write queue length does an incoming req see
system.mem_ctrl.wrQLenPdf::1                        0                       # What write queue length does an incoming req see
system.mem_ctrl.wrQLenPdf::2                        0                       # What write queue length does an incoming req see
system.mem_ctrl.wrQLenPdf::3                        0                       # What write queue length does an incoming req see
system.mem_ctrl.wrQLenPdf::4                        0                       # What write queue length does an incoming req see
system.mem_ctrl.wrQLenPdf::5                        0                       # What write queue length does an incoming req see
system.mem_ctrl.wrQLenPdf::6                        0                       # What write queue length does an incoming req see
system.mem_ctrl.wrQLenPdf::7                        0                       # What write queue length does an incoming req see
system.mem_ctrl.wrQLenPdf::8                        0                       # What write queue length does an incoming req see
system.mem_ctrl.wrQLenPdf::9                        0                       # What write queue length does an incoming req see
system.mem_ctrl.wrQLenPdf::10                       0                       # What write queue length does an incoming req see
system.mem_ctrl.wrQLenPdf::11                       0                       # What write queue length does an incoming req see
system.mem_ctrl.wrQLenPdf::12                       0                       # What write queue length does an incoming req see
system.mem_ctrl.wrQLenPdf::13                       0                       # What write queue length does an incoming req see
system.mem_ctrl.wrQLenPdf::14                       0                       # What write queue length does an incoming req see
system.mem_ctrl.wrQLenPdf::15                       0                       # What write queue length does an incoming req see
system.mem_ctrl.wrQLenPdf::16                       0                       # What write queue length does an incoming req see
system.mem_ctrl.wrQLenPdf::17                       0                       # What write queue length does an incoming req see
system.mem_ctrl.wrQLenPdf::18                       0                       # What write queue length does an incoming req see
system.mem_ctrl.wrQLenPdf::19                       0                       # What write queue length does an incoming req see
system.mem_ctrl.wrQLenPdf::20                       0                       # What write queue length does an incoming req see
system.mem_ctrl.wrQLenPdf::21                       0                       # What write queue length does an incoming req see
system.mem_ctrl.wrQLenPdf::22                       0                       # What write queue length does an incoming req see
system.mem_ctrl.wrQLenPdf::23                       0                       # What write queue length does an incoming req see
system.mem_ctrl.wrQLenPdf::24                       0                       # What write queue length does an incoming req see
system.mem_ctrl.wrQLenPdf::25                       0                       # What write queue length does an incoming req see
system.mem_ctrl.wrQLenPdf::26                       0                       # What write queue length does an incoming req see
system.mem_ctrl.wrQLenPdf::27                       0                       # What write queue length does an incoming req see
system.mem_ctrl.wrQLenPdf::28                       0                       # What write queue length does an incoming req see
system.mem_ctrl.wrQLenPdf::29                       0                       # What write queue length does an incoming req see
system.mem_ctrl.wrQLenPdf::30                       0                       # What write queue length does an incoming req see
system.mem_ctrl.wrQLenPdf::31                       0                       # What write queue length does an incoming req see
system.mem_ctrl.wrQLenPdf::32                       0                       # What write queue length does an incoming req see
system.mem_ctrl.wrQLenPdf::33                       0                       # What write queue length does an incoming req see
system.mem_ctrl.wrQLenPdf::34                       0                       # What write queue length does an incoming req see
system.mem_ctrl.wrQLenPdf::35                       0                       # What write queue length does an incoming req see
system.mem_ctrl.wrQLenPdf::36                       0                       # What write queue length does an incoming req see
system.mem_ctrl.wrQLenPdf::37                       0                       # What write queue length does an incoming req see
system.mem_ctrl.wrQLenPdf::38                       0                       # What write queue length does an incoming req see
system.mem_ctrl.wrQLenPdf::39                       0                       # What write queue length does an incoming req see
system.mem_ctrl.wrQLenPdf::40                       0                       # What write queue length does an incoming req see
system.mem_ctrl.wrQLenPdf::41                       0                       # What write queue length does an incoming req see
system.mem_ctrl.wrQLenPdf::42                       0                       # What write queue length does an incoming req see
system.mem_ctrl.wrQLenPdf::43                       0                       # What write queue length does an incoming req see
system.mem_ctrl.wrQLenPdf::44                       0                       # What write queue length does an incoming req see
system.mem_ctrl.wrQLenPdf::45                       0                       # What write queue length does an incoming req see
system.mem_ctrl.wrQLenPdf::46                       0                       # What write queue length does an incoming req see
system.mem_ctrl.wrQLenPdf::47                       0                       # What write queue length does an incoming req see
system.mem_ctrl.wrQLenPdf::48                       0                       # What write queue length does an incoming req see
system.mem_ctrl.wrQLenPdf::49                       0                       # What write queue length does an incoming req see
system.mem_ctrl.wrQLenPdf::50                       0                       # What write queue length does an incoming req see
system.mem_ctrl.wrQLenPdf::51                       0                       # What write queue length does an incoming req see
system.mem_ctrl.wrQLenPdf::52                       0                       # What write queue length does an incoming req see
system.mem_ctrl.wrQLenPdf::53                       0                       # What write queue length does an incoming req see
system.mem_ctrl.wrQLenPdf::54                       0                       # What write queue length does an incoming req see
system.mem_ctrl.wrQLenPdf::55                       0                       # What write queue length does an incoming req see
system.mem_ctrl.wrQLenPdf::56                       0                       # What write queue length does an incoming req see
system.mem_ctrl.wrQLenPdf::57                       0                       # What write queue length does an incoming req see
system.mem_ctrl.wrQLenPdf::58                       0                       # What write queue length does an incoming req see
system.mem_ctrl.wrQLenPdf::59                       0                       # What write queue length does an incoming req see
system.mem_ctrl.wrQLenPdf::60                       0                       # What write queue length does an incoming req see
system.mem_ctrl.wrQLenPdf::61                       0                       # What write queue length does an incoming req see
system.mem_ctrl.wrQLenPdf::62                       0                       # What write queue length does an incoming req see
system.mem_ctrl.wrQLenPdf::63                       0                       # What write queue length does an incoming req see
system.mem_ctrl.bytesPerActivate::samples          198                       # Bytes accessed per row activation
system.mem_ctrl.bytesPerActivate::mean     402.101010                       # Bytes accessed per row activation
system.mem_ctrl.bytesPerActivate::gmean    259.062685                       # Bytes accessed per row activation
system.mem_ctrl.bytesPerActivate::stdev    337.492621                       # Bytes accessed per row activation
system.mem_ctrl.bytesPerActivate::0-127            44     22.22%     22.22% # Bytes accessed per row activation
system.mem_ctrl.bytesPerActivate::128-255           48     24.24%     46.46% # Bytes accessed per row activation
system.mem_ctrl.bytesPerActivate::256-383           19      9.60%     56.06% # Bytes accessed per row activation
system.mem_ctrl.bytesPerActivate::384-511           16      8.08%     64.14% # Bytes accessed per row activation
system.mem_ctrl.bytesPerActivate::512-639            9      4.55%     68.69% # Bytes accessed per row activation
system.mem_ctrl.bytesPerActivate::640-767           31     15.66%     84.34% # Bytes accessed per row activation
system.mem_ctrl.bytesPerActivate::768-895            2      1.01%     85.35% # Bytes accessed per row activation
system.mem_ctrl.bytesPerActivate::896-1023            2      1.01%     86.36% # Bytes accessed per row activation
system.mem_ctrl.bytesPerActivate::1024-1151           27     13.64%    100.00% # Bytes accessed per row activation
system.mem_ctrl.bytesPerActivate::total           198                       # Bytes accessed per row activation
system.mem_ctrl.masterReadBytes::.cpu.inst        28032                       # Per-master bytes read from memory
system.mem_ctrl.masterReadBytes::.cpu.data        53248                       # Per-master bytes read from memory
system.mem_ctrl.masterReadRate::.cpu.inst 8447923.158616749570                       # Per-master bytes read from memory rate (Bytes/sec)
system.mem_ctrl.masterReadRate::.cpu.data 16047196.502212636173                       # Per-master bytes read from memory rate (Bytes/sec)
system.mem_ctrl.masterReadAccesses::.cpu.inst          438                       # Per-master read serviced memory accesses
system.mem_ctrl.masterReadAccesses::.cpu.data          832                       # Per-master read serviced memory accesses
system.mem_ctrl.masterReadTotalLat::.cpu.inst     17099750                       # Per-master read total memory access latency
system.mem_ctrl.masterReadTotalLat::.cpu.data     28917000                       # Per-master read total memory access latency
system.mem_ctrl.masterReadAvgLat::.cpu.inst     39040.53                       # Per-master read average memory access latency
system.mem_ctrl.masterReadAvgLat::.cpu.data     34756.01                       # Per-master read average memory access latency
system.mem_ctrl.totQLat                      22204250                       # Total ticks spent queuing
system.mem_ctrl.totMemAccLat                 46016750                       # Total ticks spent from burst creation until serviced by the DRAM
system.mem_ctrl.totBusLat                     6350000                       # Total ticks spent in databus transfers
system.mem_ctrl.avgQLat                      17483.66                       # Average queueing delay per DRAM burst
system.mem_ctrl.avgBusLat                     5000.00                       # Average bus latency per DRAM burst
system.mem_ctrl.avgMemAccLat                 36233.66                       # Average memory access latency per DRAM burst
system.mem_ctrl.avgRdBW                         24.50                       # Average DRAM read bandwidth in MiByte/s
system.mem_ctrl.avgWrBW                          0.00                       # Average achieved write bandwidth in MiByte/s
system.mem_ctrl.avgRdBWSys                      24.50                       # Average system read bandwidth in MiByte/s
system.mem_ctrl.avgWrBWSys                       0.00                       # Average system write bandwidth in MiByte/s
system.mem_ctrl.peakBW                       12800.00                       # Theoretical peak bandwidth in MiByte/s
system.mem_ctrl.busUtil                          0.19                       # Data bus utilization in percentage
system.mem_ctrl.busUtilRead                      0.19                       # Data bus utilization in percentage for reads
system.mem_ctrl.busUtilWrite                     0.00                       # Data bus utilization in percentage for writes
system.mem_ctrl.avgRdQLen                        1.01                       # Average read queue length when enqueuing
system.mem_ctrl.avgWrQLen                        0.00                       # Average write queue length when enqueuing
system.mem_ctrl.readRowHits                      1063                       # Number of row buffer hits during reads
system.mem_ctrl.writeRowHits                        0                       # Number of row buffer hits during writes
system.mem_ctrl.readRowHitRate                  83.70                       # Row buffer hit rate for reads
system.mem_ctrl.writeRowHitRate                   nan                       # Row buffer hit rate for writes
system.mem_ctrl.avgGap                     2612693.31                       # Average gap between requests
system.mem_ctrl.pageHitRate                     83.70                       # Row buffer hit rate, read and write combined
system.mem_ctrl_0.actEnergy                    871080                       # Energy for activate commands per rank (pJ)
system.mem_ctrl_0.preEnergy                    447810                       # Energy for precharge commands per rank (pJ)
system.mem_ctrl_0.readEnergy                  6247500                       # Energy for read commands per rank (pJ)
system.mem_ctrl_0.writeEnergy                       0                       # Energy for write commands per rank (pJ)
system.mem_ctrl_0.refreshEnergy          31961280.000000                       # Energy for refresh commands per rank (pJ)
system.mem_ctrl_0.actBackEnergy              16494660                       # Energy for active background per rank (pJ)
system.mem_ctrl_0.preBackEnergy               1569120                       # Energy for precharge background per rank (pJ)
system.mem_ctrl_0.actPowerDownEnergy        135217680                       # Energy for active power-down per rank (pJ)
system.mem_ctrl_0.prePowerDownEnergy         28395840                       # Energy for precharge power-down per rank (pJ)
system.mem_ctrl_0.selfRefreshEnergy         702212220                       # Energy for self refresh per rank (pJ)
system.mem_ctrl_0.totalEnergy               923417190                       # Total energy per rank (pJ)
system.mem_ctrl_0.averagePower             278.287581                       # Core power per rank (mW)
system.mem_ctrl_0.totalIdleTime            3277908000                       # Total Idle time Per DRAM Rank
system.mem_ctrl_0.memoryStateTime::IDLE       2562500                       # Time in different power states
system.mem_ctrl_0.memoryStateTime::REF       13520000                       # Time in different power states
system.mem_ctrl_0.memoryStateTime::SREF    2907477000                       # Time in different power states
system.mem_ctrl_0.memoryStateTime::PRE_PDN     73939750                       # Time in different power states
system.mem_ctrl_0.memoryStateTime::ACT       24173250                       # Time in different power states
system.mem_ctrl_0.memoryStateTime::ACT_PDN    296539500                       # Time in different power states
system.mem_ctrl_1.actEnergy                    606900                       # Energy for activate commands per rank (pJ)
system.mem_ctrl_1.preEnergy                    303600                       # Energy for precharge commands per rank (pJ)
system.mem_ctrl_1.readEnergy                  2820300                       # Energy for read commands per rank (pJ)
system.mem_ctrl_1.writeEnergy                       0                       # Energy for write commands per rank (pJ)
system.mem_ctrl_1.refreshEnergy          11678160.000000                       # Energy for refresh commands per rank (pJ)
system.mem_ctrl_1.actBackEnergy               6633660                       # Energy for active background per rank (pJ)
system.mem_ctrl_1.preBackEnergy                873120                       # Energy for precharge background per rank (pJ)
system.mem_ctrl_1.actPowerDownEnergy         40999530                       # Energy for active power-down per rank (pJ)
system.mem_ctrl_1.prePowerDownEnergy         17856480                       # Energy for precharge power-down per rank (pJ)
system.mem_ctrl_1.selfRefreshEnergy         762908340                       # Energy for self refresh per rank (pJ)
system.mem_ctrl_1.totalEnergy               844680090                       # Total energy per rank (pJ)
system.mem_ctrl_1.averagePower             254.558808                       # Core power per rank (mW)
system.mem_ctrl_1.totalIdleTime            3301164250                       # Total Idle time Per DRAM Rank
system.mem_ctrl_1.memoryStateTime::IDLE       1834500                       # Time in different power states
system.mem_ctrl_1.memoryStateTime::REF        4940000                       # Time in different power states
system.mem_ctrl_1.memoryStateTime::SREF    3164976750                       # Time in different power states
system.mem_ctrl_1.memoryStateTime::PRE_PDN     46501000                       # Time in different power states
system.mem_ctrl_1.memoryStateTime::ACT       10042000                       # Time in different power states
system.mem_ctrl_1.memoryStateTime::ACT_PDN     89917750                       # Time in different power states
system.pwrStateResidencyTicks::UNDEFINED   3318212000                       # Cumulative time (in ticks) in various power states
system.cpu.branchPred.lookups                  779468                       # Number of BP lookups
system.cpu.branchPred.condPredicted            779468                       # Number of conditional branches predicted
system.cpu.branchPred.condIncorrect             92514                       # Number of conditional branches incorrect
system.cpu.branchPred.BTBLookups               590134                       # Number of BTB lookups
system.cpu.branchPred.BTBHits                       0                       # Number of BTB hits
system.cpu.branchPred.BTBCorrect                    0                       # Number of correct BTB predictions (this stat may not work properly.
system.cpu.branchPred.BTBHitPct              0.000000                       # BTB Hit Percentage
system.cpu.branchPred.usedRAS                   49864                       # Number of times the RAS was used to get a target.
system.cpu.branchPred.RASInCorrect               5009                       # Number of incorrect RAS predictions.
system.cpu.branchPred.indirectLookups          590134                       # Number of indirect predictor lookups.
system.cpu.branchPred.indirectHits             388221                       # Number of indirect target hits.
system.cpu.branchPred.indirectMisses           201913                       # Number of indirect misses.
system.cpu.branchPredindirectMispredicted        42420                       # Number of mispredicted indirect branches.
system.cpu.dtb.walker.pwrStateResidencyTicks::UNDEFINED   3318212000                       # Cumulative time (in ticks) in various power states
system.cpu.dtb.rdAccesses                     2365128                       # TLB accesses on read requests
system.cpu.dtb.wrAccesses                      590789                       # TLB accesses on write requests
system.cpu.dtb.rdMisses                            72                       # TLB misses on read requests
system.cpu.dtb.wrMisses                            36                       # TLB misses on write requests
system.cpu.apic_clk_domain.clock                 8000                       # Clock period in ticks
system.cpu.interrupts.pwrStateResidencyTicks::UNDEFINED   3318212000                       # Cumulative time (in ticks) in various power states
system.cpu.itb.walker.pwrStateResidencyTicks::UNDEFINED   3318212000                       # Cumulative time (in ticks) in various power states
system.cpu.itb.rdAccesses                           0                       # TLB accesses on read requests
system.cpu.itb.wrAccesses                      757513                       # TLB accesses on write requests
system.cpu.itb.rdMisses                             0                       # TLB misses on read requests
system.cpu.itb.wrMisses                           158                       # TLB misses on write requests
system.cpu.workload.numSyscalls                     9                       # Number of system calls
system.cpu.pwrStateResidencyTicks::ON      3318212000                       # Cumulative time (in ticks) in various power states
system.cpu.numCycles                          6636425                       # number of cpu cycles simulated
system.cpu.numWorkItemsStarted                      0                       # number of work items this cpu started
system.cpu.numWorkItemsCompleted                    0                       # number of work items this cpu completed
system.cpu.fetch.icacheStallCycles              93863                       # Number of cycles fetch is stalled on an Icache miss
system.cpu.fetch.Insts                        6670391                       # Number of instructions fetch has processed
system.cpu.fetch.Branches                      779468                       # Number of branches that fetch encountered
system.cpu.fetch.predictedBranches             438085                       # Number of branches that fetch has predicted taken
system.cpu.fetch.Cycles                       6424157                       # Number of cycles fetch has run and was not squashing or blocked
system.cpu.fetch.SquashCycles                  186794                       # Number of cycles fetch has spent squashing
system.cpu.fetch.TlbCycles                         70                       # Number of cycles fetch has spent waiting for tlb
system.cpu.fetch.MiscStallCycles                   72                       # Number of cycles fetch has spent waiting on interrupts, or bad addresses, or out of MSHRs
system.cpu.fetch.PendingTrapStallCycles          1012                       # Number of stall cycles due to pending traps
system.cpu.fetch.PendingQuiesceStallCycles           19                       # Number of stall cycles due to pending quiesce instructions
system.cpu.fetch.IcacheWaitRetryStallCycles           44                       # Number of stall cycles due to full MSHR
system.cpu.fetch.CacheLines                    757398                       # Number of cache lines fetched
system.cpu.fetch.IcacheSquashes                   268                       # Number of outstanding Icache misses that were squashed
system.cpu.fetch.ItlbSquashes                       1                       # Number of outstanding ITLB misses that were squashed
system.cpu.fetch.rateDist::samples            6612634                       # Number of instructions fetched each cycle (Total)
system.cpu.fetch.rateDist::mean              1.591520                       # Number of instructions fetched each cycle (Total)
system.cpu.fetch.rateDist::stdev             0.770977                       # Number of instructions fetched each cycle (Total)
system.cpu.fetch.rateDist::underflows               0      0.00%      0.00% # Number of instructions fetched each cycle (Total)
system.cpu.fetch.rateDist::0                  1166408     17.64%     17.64% # Number of instructions fetched each cycle (Total)
system.cpu.fetch.rateDist::1                   368315      5.57%     23.21% # Number of instructions fetched each cycle (Total)
system.cpu.fetch.rateDist::2                  5077911     76.79%    100.00% # Number of instructions fetched each cycle (Total)
system.cpu.fetch.rateDist::overflows                0      0.00%    100.00% # Number of instructions fetched each cycle (Total)
system.cpu.fetch.rateDist::min_value                0                       # Number of instructions fetched each cycle (Total)
system.cpu.fetch.rateDist::max_value                2                       # Number of instructions fetched each cycle (Total)
system.cpu.fetch.rateDist::total              6612634                       # Number of instructions fetched each cycle (Total)
system.cpu.fetch.branchRate                  0.117453                       # Number of branch fetches per cycle
system.cpu.fetch.rate                        1.005118                       # Number of inst fetches per cycle
system.cpu.decode.IdleCycles                   610859                       # Number of cycles decode is idle
system.cpu.decode.BlockedCycles               1106112                       # Number of cycles decode is blocked
system.cpu.decode.RunCycles                   4279677                       # Number of cycles decode is running
system.cpu.decode.UnblockCycles                522589                       # Number of cycles decode is unblocking
system.cpu.decode.SquashCycles                  93397                       # Number of cycles decode is squashing
system.cpu.decode.DecodedInsts                9194613                       # Number of instructions handled by decode
system.cpu.decode.SquashedInsts                289240                       # Number of squashed instructions handled by decode
system.cpu.rename.SquashCycles                  93397                       # Number of cycles rename is squashing
system.cpu.rename.IdleCycles                  1148010                       # Number of cycles rename is idle
system.cpu.rename.BlockCycles                  414746                       # Number of cycles rename is blocking
system.cpu.rename.serializeStallCycles           1627                       # count of cycles rename stalled for serializing inst
system.cpu.rename.RunCycles                   4216119                       # Number of cycles rename is running
system.cpu.rename.UnblockCycles                738735                       # Number of cycles rename is unblocking
system.cpu.rename.RenamedInsts                8880610                       # Number of instructions processed by rename
system.cpu.rename.SquashedInsts                146725                       # Number of squashed instructions processed by rename
system.cpu.rename.ROBFullEvents                    26                       # Number of times rename has blocked due to ROB full
system.cpu.rename.IQFullEvents                 223178                       # Number of times rename has blocked due to IQ full
system.cpu.rename.LQFullEvents                 200093                       # Number of times rename has blocked due to LQ full
system.cpu.rename.SQFullEvents                  85748                       # Number of times rename has blocked due to SQ full
system.cpu.rename.FullRegisterEvents            20464                       # Number of times there has been no free registers
system.cpu.rename.RenamedOperands             9918797                       # Number of destination operands rename has renamed
system.cpu.rename.RenameLookups              22266967                       # Number of register rename lookups that rename has made
system.cpu.rename.int_rename_lookups         14883971                       # Number of integer rename lookups
system.cpu.rename.fp_rename_lookups              3826                       # Number of floating rename lookups
system.cpu.rename.CommittedMaps               7013491                       # Number of HB maps that are committed
system.cpu.rename.UndoneMaps                  2905306                       # Number of HB maps that are undone due to squashing
system.cpu.rename.serializingInsts                 22                       # count of serializing insts renamed
system.cpu.rename.tempSerializingInsts             21                       # count of temporary serializing insts renamed
system.cpu.rename.skidInsts                    875168                       # count of insts added to the skid buffer
system.cpu.memDep0.insertedLoads              2768962                       # Number of loads inserted to the mem dependence unit.
system.cpu.memDep0.insertedStores              745672                       # Number of stores inserted to the mem dependence unit.
system.cpu.memDep0.conflictingLoads            966271                       # Number of conflicting loads.
system.cpu.memDep0.conflictingStores           327422                       # Number of conflicting stores.
system.cpu.iq.iqInstsAdded                    8572204                       # Number of instructions added to the IQ (excludes non-spec)
system.cpu.iq.iqNonSpecInstsAdded                  79                       # Number of non-speculative instructions added to the IQ
system.cpu.iq.iqInstsIssued                   7546884                       # Number of instructions issued
system.cpu.iq.iqSquashedInstsIssued             63474                       # Number of squashed instructions issued
system.cpu.iq.iqSquashedInstsExamined         2459368                       # Number of squashed instructions iterated over during squash; mainly for profiling
system.cpu.iq.iqSquashedOperandsExamined      3653988                       # Number of squashed operands that are examined and possibly removed from graph
system.cpu.iq.iqSquashedNonSpecRemoved             70                       # Number of squashed non-spec instructions that were removed
system.cpu.iq.issued_per_cycle::samples       6612634                       # Number of insts issued each cycle
system.cpu.iq.issued_per_cycle::mean         1.141283                       # Number of insts issued each cycle
system.cpu.iq.issued_per_cycle::stdev        0.788417                       # Number of insts issued each cycle
system.cpu.iq.issued_per_cycle::underflows            0      0.00%      0.00% # Number of insts issued each cycle
system.cpu.iq.issued_per_cycle::0             1654084     25.01%     25.01% # Number of insts issued each cycle
system.cpu.iq.issued_per_cycle::1             2370216     35.84%     60.86% # Number of insts issued each cycle
system.cpu.iq.issued_per_cycle::2             2588334     39.14%    100.00% # Number of insts issued each cycle
system.cpu.iq.issued_per_cycle::overflows            0      0.00%    100.00% # Number of insts issued each cycle
system.cpu.iq.issued_per_cycle::min_value            0                       # Number of insts issued each cycle
system.cpu.iq.issued_per_cycle::max_value            2                       # Number of insts issued each cycle
system.cpu.iq.issued_per_cycle::total         6612634                       # Number of insts issued each cycle
system.cpu.iq.fu_full::No_OpClass                   0      0.00%      0.00% # attempts to use FU when none available
system.cpu.iq.fu_full::IntAlu                       0      0.00%      0.00% # attempts to use FU when none available
system.cpu.iq.fu_full::IntMult                      0      0.00%      0.00% # attempts to use FU when none available
system.cpu.iq.fu_full::IntDiv                    1892      0.21%      0.21% # attempts to use FU when none available
system.cpu.iq.fu_full::FloatAdd                     0      0.00%      0.21% # attempts to use FU when none available
system.cpu.iq.fu_full::FloatCmp                     0      0.00%      0.21% # attempts to use FU when none available
system.cpu.iq.fu_full::FloatCvt                     0      0.00%      0.21% # attempts to use FU when none available
system.cpu.iq.fu_full::FloatMult                    0      0.00%      0.21% # attempts to use FU when none available
system.cpu.iq.fu_full::FloatMultAcc                 0      0.00%      0.21% # attempts to use FU when none available
system.cpu.iq.fu_full::FloatDiv                     0      0.00%      0.21% # attempts to use FU when none available
system.cpu.iq.fu_full::FloatMisc                    0      0.00%      0.21% # attempts to use FU when none available
system.cpu.iq.fu_full::FloatSqrt                    0      0.00%      0.21% # attempts to use FU when none available
system.cpu.iq.fu_full::SimdAdd                    251      0.03%      0.24% # attempts to use FU when none available
system.cpu.iq.fu_full::SimdAddAcc                   0      0.00%      0.24% # attempts to use FU when none available
system.cpu.iq.fu_full::SimdAlu                     52      0.01%      0.25% # attempts to use FU when none available
system.cpu.iq.fu_full::SimdCmp                      0      0.00%      0.25% # attempts to use FU when none available
system.cpu.iq.fu_full::SimdCvt                     18      0.00%      0.25% # attempts to use FU when none available
system.cpu.iq.fu_full::SimdMisc                   119      0.01%      0.26% # attempts to use FU when none available
system.cpu.iq.fu_full::SimdMult                     0      0.00%      0.26% # attempts to use FU when none available
system.cpu.iq.fu_full::SimdMultAcc                  0      0.00%      0.26% # attempts to use FU when none available
system.cpu.iq.fu_full::SimdShift                  124      0.01%      0.28% # attempts to use FU when none available
system.cpu.iq.fu_full::SimdShiftAcc                 0      0.00%      0.28% # attempts to use FU when none available
system.cpu.iq.fu_full::SimdSqrt                     0      0.00%      0.28% # attempts to use FU when none available
system.cpu.iq.fu_full::SimdFloatAdd                 0      0.00%      0.28% # attempts to use FU when none available
system.cpu.iq.fu_full::SimdFloatAlu                 0      0.00%      0.28% # attempts to use FU when none available
system.cpu.iq.fu_full::SimdFloatCmp                 0      0.00%      0.28% # attempts to use FU when none available
system.cpu.iq.fu_full::SimdFloatCvt                 0      0.00%      0.28% # attempts to use FU when none available
system.cpu.iq.fu_full::SimdFloatDiv                 0      0.00%      0.28% # attempts to use FU when none available
system.cpu.iq.fu_full::SimdFloatMisc                0      0.00%      0.28% # attempts to use FU when none available
system.cpu.iq.fu_full::SimdFloatMult                0      0.00%      0.28% # attempts to use FU when none available
system.cpu.iq.fu_full::SimdFloatMultAcc             0      0.00%      0.28% # attempts to use FU when none available
system.cpu.iq.fu_full::SimdFloatSqrt                0      0.00%      0.28% # attempts to use FU when none available
system.cpu.iq.fu_full::SimdAes                      0      0.00%      0.28% # attempts to use FU when none available
system.cpu.iq.fu_full::SimdAesMix                   0      0.00%      0.28% # attempts to use FU when none available
system.cpu.iq.fu_full::SimdSha1Hash                 0      0.00%      0.28% # attempts to use FU when none available
system.cpu.iq.fu_full::SimdSha1Hash2                0      0.00%      0.28% # attempts to use FU when none available
system.cpu.iq.fu_full::SimdSha256Hash               0      0.00%      0.28% # attempts to use FU when none available
system.cpu.iq.fu_full::SimdSha256Hash2              0      0.00%      0.28% # attempts to use FU when none available
system.cpu.iq.fu_full::SimdShaSigma2                0      0.00%      0.28% # attempts to use FU when none available
system.cpu.iq.fu_full::SimdShaSigma3                0      0.00%      0.28% # attempts to use FU when none available
system.cpu.iq.fu_full::MemRead                 818589     92.79%     93.07% # attempts to use FU when none available
system.cpu.iq.fu_full::MemWrite                 61170      6.93%    100.00% # attempts to use FU when none available
system.cpu.iq.fu_full::FloatMemRead                 0      0.00%    100.00% # attempts to use FU when none available
system.cpu.iq.fu_full::FloatMemWrite                0      0.00%    100.00% # attempts to use FU when none available
system.cpu.iq.fu_full::IprAccess                    0      0.00%    100.00% # attempts to use FU when none available
system.cpu.iq.fu_full::InstPrefetch                 0      0.00%    100.00% # attempts to use FU when none available
system.cpu.iq.FU_type_0::No_OpClass             14499      0.19%      0.19% # Type of FU issued
system.cpu.iq.FU_type_0::IntAlu               4404072     58.36%     58.55% # Type of FU issued
system.cpu.iq.FU_type_0::IntMult                20005      0.27%     58.81% # Type of FU issued
system.cpu.iq.FU_type_0::IntDiv                 70002      0.93%     59.74% # Type of FU issued
system.cpu.iq.FU_type_0::FloatAdd                  11      0.00%     59.74% # Type of FU issued
system.cpu.iq.FU_type_0::FloatCmp                   0      0.00%     59.74% # Type of FU issued
system.cpu.iq.FU_type_0::FloatCvt                   0      0.00%     59.74% # Type of FU issued
system.cpu.iq.FU_type_0::FloatMult                  0      0.00%     59.74% # Type of FU issued
system.cpu.iq.FU_type_0::FloatMultAcc               0      0.00%     59.74% # Type of FU issued
system.cpu.iq.FU_type_0::FloatDiv                   0      0.00%     59.74% # Type of FU issued
system.cpu.iq.FU_type_0::FloatMisc                  0      0.00%     59.74% # Type of FU issued
system.cpu.iq.FU_type_0::FloatSqrt                  0      0.00%     59.74% # Type of FU issued
system.cpu.iq.FU_type_0::SimdAdd                  375      0.00%     59.75% # Type of FU issued
system.cpu.iq.FU_type_0::SimdAddAcc                 0      0.00%     59.75% # Type of FU issued
system.cpu.iq.FU_type_0::SimdAlu                   70      0.00%     59.75% # Type of FU issued
system.cpu.iq.FU_type_0::SimdCmp                    0      0.00%     59.75% # Type of FU issued
system.cpu.iq.FU_type_0::SimdCvt                  108      0.00%     59.75% # Type of FU issued
system.cpu.iq.FU_type_0::SimdMisc                 215      0.00%     59.75% # Type of FU issued
system.cpu.iq.FU_type_0::SimdMult                   0      0.00%     59.75% # Type of FU issued
system.cpu.iq.FU_type_0::SimdMultAcc                0      0.00%     59.75% # Type of FU issued
system.cpu.iq.FU_type_0::SimdShift                186      0.00%     59.75% # Type of FU issued
system.cpu.iq.FU_type_0::SimdShiftAcc               0      0.00%     59.75% # Type of FU issued
system.cpu.iq.FU_type_0::SimdSqrt                   0      0.00%     59.75% # Type of FU issued
system.cpu.iq.FU_type_0::SimdFloatAdd               0      0.00%     59.75% # Type of FU issued
system.cpu.iq.FU_type_0::SimdFloatAlu               0      0.00%     59.75% # Type of FU issued
system.cpu.iq.FU_type_0::SimdFloatCmp               0      0.00%     59.75% # Type of FU issued
system.cpu.iq.FU_type_0::SimdFloatCvt               0      0.00%     59.75% # Type of FU issued
system.cpu.iq.FU_type_0::SimdFloatDiv               0      0.00%     59.75% # Type of FU issued
system.cpu.iq.FU_type_0::SimdFloatMisc              0      0.00%     59.75% # Type of FU issued
system.cpu.iq.FU_type_0::SimdFloatMult              0      0.00%     59.75% # Type of FU issued
system.cpu.iq.FU_type_0::SimdFloatMultAcc            0      0.00%     59.75% # Type of FU issued
system.cpu.iq.FU_type_0::SimdFloatSqrt              0      0.00%     59.75% # Type of FU issued
system.cpu.iq.FU_type_0::SimdAes                    0      0.00%     59.75% # Type of FU issued
system.cpu.iq.FU_type_0::SimdAesMix                 0      0.00%     59.75% # Type of FU issued
system.cpu.iq.FU_type_0::SimdSha1Hash               0      0.00%     59.75% # Type of FU issued
system.cpu.iq.FU_type_0::SimdSha1Hash2              0      0.00%     59.75% # Type of FU issued
system.cpu.iq.FU_type_0::SimdSha256Hash             0      0.00%     59.75% # Type of FU issued
system.cpu.iq.FU_type_0::SimdSha256Hash2            0      0.00%     59.75% # Type of FU issued
system.cpu.iq.FU_type_0::SimdShaSigma2              0      0.00%     59.75% # Type of FU issued
system.cpu.iq.FU_type_0::SimdShaSigma3              0      0.00%     59.75% # Type of FU issued
system.cpu.iq.FU_type_0::MemRead              2433924     32.25%     92.00% # Type of FU issued
system.cpu.iq.FU_type_0::MemWrite              602928      7.99%     99.99% # Type of FU issued
system.cpu.iq.FU_type_0::FloatMemRead              65      0.00%     99.99% # Type of FU issued
system.cpu.iq.FU_type_0::FloatMemWrite            424      0.01%    100.00% # Type of FU issued
system.cpu.iq.FU_type_0::IprAccess                  0      0.00%    100.00% # Type of FU issued
system.cpu.iq.FU_type_0::InstPrefetch               0      0.00%    100.00% # Type of FU issued
system.cpu.iq.FU_type_0::total                7546884                       # Type of FU issued
system.cpu.iq.rate                           1.137191                       # Inst issue rate
system.cpu.iq.fu_busy_cnt                      882215                       # FU busy when requested
system.cpu.iq.fu_busy_rate                   0.116898                       # FU busy rate (busy events/executed inst)
system.cpu.iq.int_inst_queue_reads           22647590                       # Number of integer instruction queue reads
system.cpu.iq.int_inst_queue_writes          11030465                       # Number of integer instruction queue writes
system.cpu.iq.int_inst_queue_wakeup_accesses      7261975                       # Number of integer instruction queue wakeup accesses
system.cpu.iq.fp_inst_queue_reads                4501                       # Number of floating instruction queue reads
system.cpu.iq.fp_inst_queue_writes               2023                       # Number of floating instruction queue writes
system.cpu.iq.fp_inst_queue_wakeup_accesses         1954                       # Number of floating instruction queue wakeup accesses
system.cpu.iq.vec_inst_queue_reads                  0                       # Number of vector instruction queue reads
system.cpu.iq.vec_inst_queue_writes                 0                       # Number of vector instruction queue writes
system.cpu.iq.vec_inst_queue_wakeup_accesses            0                       # Number of vector instruction queue wakeup accesses
system.cpu.iq.int_alu_accesses                8412068                       # Number of integer alu accesses
system.cpu.iq.fp_alu_accesses                    2532                       # Number of floating point alu accesses
system.cpu.iq.vec_alu_accesses                      0                       # Number of vector alu accesses
system.cpu.iew.lsq.thread0.forwLoads           356286                       # Number of loads that had data forwarded from stores
system.cpu.iew.lsq.thread0.invAddrLoads             0                       # Number of loads ignored due to an invalid address
system.cpu.iew.lsq.thread0.squashedLoads       868008                       # Number of loads squashed
system.cpu.iew.lsq.thread0.ignoredResponses         1631                       # Number of memory responses ignored because the instruction is squashed
system.cpu.iew.lsq.thread0.memOrderViolation          837                       # Number of memory ordering violations
system.cpu.iew.lsq.thread0.squashedStores       210384                       # Number of stores squashed
system.cpu.iew.lsq.thread0.invAddrSwpfs             0                       # Number of software prefetches ignored due to an invalid address
system.cpu.iew.lsq.thread0.blockedLoads             0                       # Number of blocked loads due to partial load-store forwarding
system.cpu.iew.lsq.thread0.rescheduledLoads            1                       # Number of loads that were rescheduled
system.cpu.iew.lsq.thread0.cacheBlocked            14                       # Number of times an access to memory failed due to the cache being blocked
system.cpu.iew.iewIdleCycles                        0                       # Number of cycles IEW is idle
system.cpu.iew.iewSquashCycles                  93397                       # Number of cycles IEW is squashing
system.cpu.iew.iewBlockCycles                  108147                       # Number of cycles IEW is blocking
system.cpu.iew.iewUnblockCycles                106482                       # Number of cycles IEW is unblocking
system.cpu.iew.iewDispatchedInsts             8572283                       # Number of instructions dispatched to IQ
system.cpu.iew.iewDispSquashedInsts             53569                       # Number of squashed instructions skipped by dispatch
system.cpu.iew.iewDispLoadInsts               2768962                       # Number of dispatched load instructions
system.cpu.iew.iewDispStoreInsts               745672                       # Number of dispatched store instructions
system.cpu.iew.iewDispNonSpecInsts                 36                       # Number of dispatched non-speculative instructions
system.cpu.iew.iewIQFullEvents                    136                       # Number of times the IQ has become full, causing a stall
system.cpu.iew.iewLSQFullEvents                 76609                       # Number of times the LSQ has become full, causing a stall
system.cpu.iew.memOrderViolationEvents            837                       # Number of memory order violations
system.cpu.iew.predictedTakenIncorrect          31097                       # Number of branches that were predicted taken incorrectly
system.cpu.iew.predictedNotTakenIncorrect        71023                       # Number of branches that were predicted not taken incorrectly
system.cpu.iew.branchMispredicts               102120                       # Number of branch mispredicts detected at execute
system.cpu.iew.iewExecutedInsts               7363324                       # Number of executed instructions
system.cpu.iew.iewExecLoadInsts               2365126                       # Number of load instructions executed
system.cpu.iew.iewExecSquashedInsts            183560                       # Number of squashed instructions skipped in execute
system.cpu.iew.exec_swp                             0                       # number of swp insts executed
system.cpu.iew.exec_nop                             0                       # number of nop insts executed
system.cpu.iew.exec_refs                      2955915                       # number of memory reference insts executed
system.cpu.iew.exec_branches                   517427                       # Number of branches executed
system.cpu.iew.exec_stores                     590789                       # Number of stores executed
system.cpu.iew.exec_rate                     1.109532                       # Inst execution rate
system.cpu.iew.wb_sent                        7302630                       # cumulative count of insts sent to commit
system.cpu.iew.wb_count                       7263929                       # cumulative count of insts written-back
system.cpu.iew.wb_producers                   5789248                       # num instructions producing a value
system.cpu.iew.wb_consumers                   7345550                       # num instructions consuming a value
system.cpu.iew.wb_rate                       1.094555                       # insts written-back per cycle
system.cpu.iew.wb_fanout                     0.788130                       # average fanout of values written-back
system.cpu.commit.commitSquashedInsts         2325721                       # The number of squashed insts skipped by commit
system.cpu.commit.commitNonSpecStalls               9                       # The number of times commit has been forced to stall to communicate backwards
system.cpu.commit.branchMispredicts             92581                       # The number of times a branch was mispredicted
system.cpu.commit.committed_per_cycle::samples      6413629                       # Number of insts commited each cycle
system.cpu.commit.committed_per_cycle::mean     0.953113                       # Number of insts commited each cycle
system.cpu.commit.committed_per_cycle::stdev     0.905268                       # Number of insts commited each cycle
system.cpu.commit.committed_per_cycle::underflows            0      0.00%      0.00% # Number of insts commited each cycle
system.cpu.commit.committed_per_cycle::0      2785422     43.43%     43.43% # Number of insts commited each cycle
system.cpu.commit.committed_per_cycle::1      1143500     17.83%     61.26% # Number of insts commited each cycle
system.cpu.commit.committed_per_cycle::2      2484707     38.74%    100.00% # Number of insts commited each cycle
system.cpu.commit.committed_per_cycle::overflows            0      0.00%    100.00% # Number of insts commited each cycle
system.cpu.commit.committed_per_cycle::min_value            0                       # Number of insts commited each cycle
system.cpu.commit.committed_per_cycle::max_value            2                       # Number of insts commited each cycle
system.cpu.commit.committed_per_cycle::total      6413629                       # Number of insts commited each cycle
system.cpu.commit.committedInsts              3893691                       # Number of instructions committed
system.cpu.commit.committedOps                6112914                       # Number of ops (including micro ops) committed
system.cpu.commit.swp_count                         0                       # Number of s/w prefetches committed
system.cpu.commit.refs                        2436242                       # Number of memory references committed
system.cpu.commit.loads                       1900954                       # Number of loads committed
system.cpu.commit.membars                           0                       # Number of memory barriers committed
system.cpu.commit.branches                     453786                       # Number of branches committed
system.cpu.commit.vec_insts                         0                       # Number of committed Vector instructions.
system.cpu.commit.fp_insts                       1943                       # Number of committed floating point instructions.
system.cpu.commit.int_insts                   6086396                       # Number of committed integer instructions.
system.cpu.commit.function_calls                30121                       # Number of function calls committed.
system.cpu.commit.op_class_0::No_OpClass        10099      0.17%      0.17% # Class of committed instruction
system.cpu.commit.op_class_0::IntAlu          3575611     58.49%     58.66% # Class of committed instruction
system.cpu.commit.op_class_0::IntMult           20002      0.33%     58.99% # Class of committed instruction
system.cpu.commit.op_class_0::IntDiv            70000      1.15%     60.13% # Class of committed instruction
system.cpu.commit.op_class_0::FloatAdd             10      0.00%     60.13% # Class of committed instruction
system.cpu.commit.op_class_0::FloatCmp              0      0.00%     60.13% # Class of committed instruction
system.cpu.commit.op_class_0::FloatCvt              0      0.00%     60.13% # Class of committed instruction
system.cpu.commit.op_class_0::FloatMult             0      0.00%     60.13% # Class of committed instruction
system.cpu.commit.op_class_0::FloatMultAcc            0      0.00%     60.13% # Class of committed instruction
system.cpu.commit.op_class_0::FloatDiv              0      0.00%     60.13% # Class of committed instruction
system.cpu.commit.op_class_0::FloatMisc             0      0.00%     60.13% # Class of committed instruction
system.cpu.commit.op_class_0::FloatSqrt             0      0.00%     60.13% # Class of committed instruction
system.cpu.commit.op_class_0::SimdAdd             374      0.01%     60.14% # Class of committed instruction
system.cpu.commit.op_class_0::SimdAddAcc            0      0.00%     60.14% # Class of committed instruction
system.cpu.commit.op_class_0::SimdAlu              68      0.00%     60.14% # Class of committed instruction
system.cpu.commit.op_class_0::SimdCmp               0      0.00%     60.14% # Class of committed instruction
system.cpu.commit.op_class_0::SimdCvt             108      0.00%     60.14% # Class of committed instruction
system.cpu.commit.op_class_0::SimdMisc            214      0.00%     60.14% # Class of committed instruction
system.cpu.commit.op_class_0::SimdMult              0      0.00%     60.14% # Class of committed instruction
system.cpu.commit.op_class_0::SimdMultAcc            0      0.00%     60.14% # Class of committed instruction
system.cpu.commit.op_class_0::SimdShift           186      0.00%     60.15% # Class of committed instruction
system.cpu.commit.op_class_0::SimdShiftAcc            0      0.00%     60.15% # Class of committed instruction
system.cpu.commit.op_class_0::SimdSqrt              0      0.00%     60.15% # Class of committed instruction
system.cpu.commit.op_class_0::SimdFloatAdd            0      0.00%     60.15% # Class of committed instruction
system.cpu.commit.op_class_0::SimdFloatAlu            0      0.00%     60.15% # Class of committed instruction
system.cpu.commit.op_class_0::SimdFloatCmp            0      0.00%     60.15% # Class of committed instruction
system.cpu.commit.op_class_0::SimdFloatCvt            0      0.00%     60.15% # Class of committed instruction
system.cpu.commit.op_class_0::SimdFloatDiv            0      0.00%     60.15% # Class of committed instruction
system.cpu.commit.op_class_0::SimdFloatMisc            0      0.00%     60.15% # Class of committed instruction
system.cpu.commit.op_class_0::SimdFloatMult            0      0.00%     60.15% # Class of committed instruction
system.cpu.commit.op_class_0::SimdFloatMultAcc            0      0.00%     60.15% # Class of committed instruction
system.cpu.commit.op_class_0::SimdFloatSqrt            0      0.00%     60.15% # Class of committed instruction
system.cpu.commit.op_class_0::SimdAes               0      0.00%     60.15% # Class of committed instruction
system.cpu.commit.op_class_0::SimdAesMix            0      0.00%     60.15% # Class of committed instruction
system.cpu.commit.op_class_0::SimdSha1Hash            0      0.00%     60.15% # Class of committed instruction
system.cpu.commit.op_class_0::SimdSha1Hash2            0      0.00%     60.15% # Class of committed instruction
system.cpu.commit.op_class_0::SimdSha256Hash            0      0.00%     60.15% # Class of committed instruction
system.cpu.commit.op_class_0::SimdSha256Hash2            0      0.00%     60.15% # Class of committed instruction
system.cpu.commit.op_class_0::SimdShaSigma2            0      0.00%     60.15% # Class of committed instruction
system.cpu.commit.op_class_0::SimdShaSigma3            0      0.00%     60.15% # Class of committed instruction
system.cpu.commit.op_class_0::MemRead         1900898     31.10%     91.24% # Class of committed instruction
system.cpu.commit.op_class_0::MemWrite         534873      8.75%     99.99% # Class of committed instruction
system.cpu.commit.op_class_0::FloatMemRead           56      0.00%     99.99% # Class of committed instruction
system.cpu.commit.op_class_0::FloatMemWrite          415      0.01%    100.00% # Class of committed instruction
system.cpu.commit.op_class_0::IprAccess             0      0.00%    100.00% # Class of committed instruction
system.cpu.commit.op_class_0::InstPrefetch            0      0.00%    100.00% # Class of committed instruction
system.cpu.commit.op_class_0::total           6112914                       # Class of committed instruction
system.cpu.commit.bw_lim_events               2484707                       # number cycles where commit BW limit reached
system.cpu.rob.rob_reads                     12367557                       # The number of ROB reads
system.cpu.rob.rob_writes                    17076301                       # The number of ROB writes
system.cpu.timesIdled                             266                       # Number of times that the entire CPU went into an idle state and unscheduled itself
system.cpu.idleCycles                           23791                       # Total number of cycles that the CPU has spent unscheduled due to idling
system.cpu.committedInsts                     3893691                       # Number of Instructions Simulated
system.cpu.committedOps                       6112914                       # Number of Ops (including micro ops) Simulated
system.cpu.cpi                               1.704405                       # CPI: Cycles Per Instruction
system.cpu.cpi_total                         1.704405                       # CPI: Total CPI of All Threads
system.cpu.ipc                               0.586715                       # IPC: Instructions Per Cycle
system.cpu.ipc_total                         0.586715                       # IPC: Total IPC of All Threads
system.cpu.int_regfile_reads                 11984192                       # number of integer regfile reads
system.cpu.int_regfile_writes                 6322764                       # number of integer regfile writes
system.cpu.fp_regfile_reads                      3780                       # number of floating regfile reads
system.cpu.fp_regfile_writes                     1484                       # number of floating regfile writes
system.cpu.cc_regfile_reads                   1950541                       # number of cc regfile reads
system.cpu.cc_regfile_writes                  1846665                       # number of cc regfile writes
system.cpu.misc_regfile_reads                 4054333                       # number of misc regfile reads
system.cpu.dcache.tags.pwrStateResidencyTicks::UNDEFINED   3318212000                       # Cumulative time (in ticks) in various power states
system.cpu.dcache.tags.tagsinuse           254.232118                       # Cycle average of tags in use
system.cpu.dcache.tags.total_refs             2543537                       # Total number of references to valid blocks.
system.cpu.dcache.tags.sampled_refs              3000                       # Sample count of references to valid blocks.
system.cpu.dcache.tags.avg_refs            847.845667                       # Average number of references to valid blocks.
system.cpu.dcache.tags.warmup_cycle            170000                       # Cycle when the warmup percentage was hit.
system.cpu.dcache.tags.occ_blocks::.cpu.data   254.232118                       # Average occupied blocks per requestor
system.cpu.dcache.tags.occ_percent::.cpu.data     0.993094                       # Average percentage of cache occupancy
system.cpu.dcache.tags.occ_percent::total     0.993094                       # Average percentage of cache occupancy
system.cpu.dcache.tags.occ_task_id_blocks::1024          256                       # Occupied blocks per task id
system.cpu.dcache.tags.age_task_id_blocks_1024::0           64                       # Occupied blocks per task id
system.cpu.dcache.tags.age_task_id_blocks_1024::1          189                       # Occupied blocks per task id
system.cpu.dcache.tags.age_task_id_blocks_1024::2            2                       # Occupied blocks per task id
system.cpu.dcache.tags.age_task_id_blocks_1024::3            1                       # Occupied blocks per task id
system.cpu.dcache.tags.occ_task_id_percent::1024            1                       # Percentage of cache occupancy per task id
system.cpu.dcache.tags.tag_accesses          81412728                       # Number of tag accesses
system.cpu.dcache.tags.data_accesses         81412728                       # Number of data accesses
system.cpu.dcache.pwrStateResidencyTicks::UNDEFINED   3318212000                       # Cumulative time (in ticks) in various power states
system.cpu.dcache.ReadReq_hits::.cpu.data      2006844                       # number of ReadReq hits
system.cpu.dcache.ReadReq_hits::total         2006844                       # number of ReadReq hits
system.cpu.dcache.WriteReq_hits::.cpu.data       533693                       # number of WriteReq hits
system.cpu.dcache.WriteReq_hits::total         533693                       # number of WriteReq hits
system.cpu.dcache.demand_hits::.cpu.data      2540537                       # number of demand (read+write) hits
system.cpu.dcache.demand_hits::total          2540537                       # number of demand (read+write) hits
system.cpu.dcache.overall_hits::.cpu.data      2540537                       # number of overall hits
system.cpu.dcache.overall_hits::total         2540537                       # number of overall hits
system.cpu.dcache.ReadReq_misses::.cpu.data         1922                       # number of ReadReq misses
system.cpu.dcache.ReadReq_misses::total          1922                       # number of ReadReq misses
system.cpu.dcache.WriteReq_misses::.cpu.data         1595                       # number of WriteReq misses
system.cpu.dcache.WriteReq_misses::total         1595                       # number of WriteReq misses
system.cpu.dcache.demand_misses::.cpu.data         3517                       # number of demand (read+write) misses
system.cpu.dcache.demand_misses::total           3517                       # number of demand (read+write) misses
system.cpu.dcache.overall_misses::.cpu.data         3517                       # number of overall misses
system.cpu.dcache.overall_misses::total          3517                       # number of overall misses
system.cpu.dcache.ReadReq_miss_latency::.cpu.data     38581000                       # number of ReadReq miss cycles
system.cpu.dcache.ReadReq_miss_latency::total     38581000                       # number of ReadReq miss cycles
system.cpu.dcache.WriteReq_miss_latency::.cpu.data     72680500                       # number of WriteReq miss cycles
system.cpu.dcache.WriteReq_miss_latency::total     72680500                       # number of WriteReq miss cycles
system.cpu.dcache.demand_miss_latency::.cpu.data    111261500                       # number of demand (read+write) miss cycles
system.cpu.dcache.demand_miss_latency::total    111261500                       # number of demand (read+write) miss cycles
system.cpu.dcache.overall_miss_latency::.cpu.data    111261500                       # number of overall miss cycles
system.cpu.dcache.overall_miss_latency::total    111261500                       # number of overall miss cycles
system.cpu.dcache.ReadReq_accesses::.cpu.data      2008766                       # number of ReadReq accesses(hits+misses)
system.cpu.dcache.ReadReq_accesses::total      2008766                       # number of ReadReq accesses(hits+misses)
system.cpu.dcache.WriteReq_accesses::.cpu.data       535288                       # number of WriteReq accesses(hits+misses)
system.cpu.dcache.WriteReq_accesses::total       535288                       # number of WriteReq accesses(hits+misses)
system.cpu.dcache.demand_accesses::.cpu.data      2544054                       # number of demand (read+write) accesses
system.cpu.dcache.demand_accesses::total      2544054                       # number of demand (read+write) accesses
system.cpu.dcache.overall_accesses::.cpu.data      2544054                       # number of overall (read+write) accesses
system.cpu.dcache.overall_accesses::total      2544054                       # number of overall (read+write) accesses
system.cpu.dcache.ReadReq_miss_rate::.cpu.data     0.000957                       # miss rate for ReadReq accesses
system.cpu.dcache.ReadReq_miss_rate::total     0.000957                       # miss rate for ReadReq accesses
system.cpu.dcache.WriteReq_miss_rate::.cpu.data     0.002980                       # miss rate for WriteReq accesses
system.cpu.dcache.WriteReq_miss_rate::total     0.002980                       # miss rate for WriteReq accesses
system.cpu.dcache.demand_miss_rate::.cpu.data     0.001382                       # miss rate for demand accesses
system.cpu.dcache.demand_miss_rate::total     0.001382                       # miss rate for demand accesses
system.cpu.dcache.overall_miss_rate::.cpu.data     0.001382                       # miss rate for overall accesses
system.cpu.dcache.overall_miss_rate::total     0.001382                       # miss rate for overall accesses
system.cpu.dcache.ReadReq_avg_miss_latency::.cpu.data 20073.361082                       # average ReadReq miss latency
system.cpu.dcache.ReadReq_avg_miss_latency::total 20073.361082                       # average ReadReq miss latency
[...]
system.l3bus.snoop_fanout::overflows                0      0.00%    100.00% # Request fanout histogram
system.l3bus.snoop_fanout::min_value                0                       # Request fanout histogram
system.l3bus.snoop_fanout::max_value                0                       # Request fanout histogram
system.l3bus.snoop_fanout::total                 1270                       # Request fanout histogram
system.l3bus.reqLayer0.occupancy               635500                       # Layer occupancy (ticks)
system.l3bus.reqLayer0.utilization                0.0                       # Layer utilization (%)
system.l3bus.respLayer0.occupancy             3175000                       # Layer occupancy (ticks)
system.l3bus.respLayer0.utilization               0.1                       # Layer utilization (%)
system.l3cache.tags.pwrStateResidencyTicks::UNDEFINED   3318212000                       # Cumulative time (in ticks) in various power states
system.l3cache.tags.tagsinuse              994.137760                       # Cycle average of tags in use
system.l3cache.tags.total_refs                   1270                       # Total number of references to valid blocks.
system.l3cache.tags.sampled_refs                 1270                       # Sample count of references to valid blocks.
system.l3cache.tags.avg_refs                        1                       # Average number of references to valid blocks.
system.l3cache.tags.warmup_cycle                76000                       # Cycle when the warmup percentage was hit.
system.l3cache.tags.occ_blocks::.cpu.inst   395.419355                       # Average occupied blocks per requestor
system.l3cache.tags.occ_blocks::.cpu.data   598.718405                       # Average occupied blocks per requestor
system.l3cache.tags.occ_percent::.cpu.inst     0.024134                       # Average percentage of cache occupancy
system.l3cache.tags.occ_percent::.cpu.data     0.036543                       # Average percentage of cache occupancy
system.l3cache.tags.occ_percent::total       0.060677                       # Average percentage of cache occupancy
system.l3cache.tags.occ_task_id_blocks::1024         1270                       # Occupied blocks per task id
system.l3cache.tags.age_task_id_blocks_1024::0           54                       # Occupied blocks per task id
system.l3cache.tags.age_task_id_blocks_1024::2          156                       # Occupied blocks per task id
system.l3cache.tags.age_task_id_blocks_1024::3         1060                       # Occupied blocks per task id
system.l3cache.tags.occ_task_id_percent::1024     0.077515                       # Percentage of cache occupancy per task id
system.l3cache.tags.tag_accesses                21590                       # Number of tag accesses
system.l3cache.tags.data_accesses               21590                       # Number of data accesses
system.l3cache.pwrStateResidencyTicks::UNDEFINED   3318212000                       # Cumulative time (in ticks) in various power states
system.l3cache.ReadExReq_misses::.cpu.data          722                       # number of ReadExReq misses
system.l3cache.ReadExReq_misses::total            722                       # number of ReadExReq misses
system.l3cache.ReadSharedReq_misses::.cpu.inst          438                       # number of ReadSharedReq misses
system.l3cache.ReadSharedReq_misses::.cpu.data          110                       # number of ReadSharedReq misses
system.l3cache.ReadSharedReq_misses::total          548                       # number of ReadSharedReq misses
system.l3cache.demand_misses::.cpu.inst           438                       # number of demand (read+write) misses
system.l3cache.demand_misses::.cpu.data           832                       # number of demand (read+write) misses
system.l3cache.demand_misses::total              1270                       # number of demand (read+write) misses
system.l3cache.overall_misses::.cpu.inst          438                       # number of overall misses
system.l3cache.overall_misses::.cpu.data          832                       # number of overall misses
system.l3cache.overall_misses::total             1270                       # number of overall misses
system.l3cache.ReadExReq_miss_latency::.cpu.data     51298000                       # number of ReadExReq miss cycles
system.l3cache.ReadExReq_miss_latency::total     51298000                       # number of ReadExReq miss cycles
system.l3cache.ReadSharedReq_miss_latency::.cpu.inst     33401500                       # number of ReadSharedReq miss cycles
system.l3cache.ReadSharedReq_miss_latency::.cpu.data      8588500                       # number of ReadSharedReq miss cycles
system.l3cache.ReadSharedReq_miss_latency::total     41990000                       # number of ReadSharedReq miss cycles
system.l3cache.demand_miss_latency::.cpu.inst     33401500                       # number of demand (read+write) miss cycles
system.l3cache.demand_miss_latency::.cpu.data     59886500                       # number of demand (read+write) miss cycles
system.l3cache.demand_miss_latency::total     93288000                       # number of demand (read+write) miss cycles
system.l3cache.overall_miss_latency::.cpu.inst     33401500                       # number of overall miss cycles
system.l3cache.overall_miss_latency::.cpu.data     59886500                       # number of overall miss cycles
system.l3cache.overall_miss_latency::total     93288000                       # number of overall miss cycles
system.l3cache.ReadExReq_accesses::.cpu.data          722                       # number of ReadExReq accesses(hits+misses)
system.l3cache.ReadExReq_accesses::total          722                       # number of ReadExReq accesses(hits+misses)
system.l3cache.ReadSharedReq_accesses::.cpu.inst          438                       # number of ReadSharedReq accesses(hits+misses)
system.l3cache.ReadSharedReq_accesses::.cpu.data          110                       # number of ReadSharedReq accesses(hits+misses)
system.l3cache.ReadSharedReq_accesses::total          548                       # number of ReadSharedReq accesses(hits+misses)
system.l3cache.demand_accesses::.cpu.inst          438                       # number of demand (read+write) accesses
system.l3cache.demand_accesses::.cpu.data          832                       # number of demand (read+write) accesses
system.l3cache.demand_accesses::total            1270                       # number of demand (read+write) accesses
system.l3cache.overall_accesses::.cpu.inst          438                       # number of overall (read+write) accesses
system.l3cache.overall_accesses::.cpu.data          832                       # number of overall (read+write) accesses
system.l3cache.overall_accesses::total           1270                       # number of overall (read+write) accesses
system.l3cache.ReadExReq_miss_rate::.cpu.data            1                       # miss rate for ReadExReq accesses
system.l3cache.ReadExReq_miss_rate::total            1                       # miss rate for ReadExReq accesses
system.l3cache.ReadSharedReq_miss_rate::.cpu.inst            1                       # miss rate for ReadSharedReq accesses
system.l3cache.ReadSharedReq_miss_rate::.cpu.data            1                       # miss rate for ReadSharedReq accesses
system.l3cache.ReadSharedReq_miss_rate::total            1                       # miss rate for ReadSharedReq accesses
system.l3cache.demand_miss_rate::.cpu.inst            1                       # miss rate for demand accesses
system.l3cache.demand_miss_rate::.cpu.data            1                       # miss rate for demand accesses
system.l3cache.demand_miss_rate::total              1                       # miss rate for demand accesses
system.l3cache.overall_miss_rate::.cpu.inst            1                       # miss rate for overall accesses
system.l3cache.overall_miss_rate::.cpu.data            1                       # miss rate for overall accesses
system.l3cache.overall_miss_rate::total             1                       # miss rate for overall accesses
system.l3cache.ReadExReq_avg_miss_latency::.cpu.data 71049.861496                       # average ReadExReq miss latency
system.l3cache.ReadExReq_avg_miss_latency::total 71049.861496                       # average ReadExReq miss latency
system.l3cache.ReadSharedReq_avg_miss_latency::.cpu.inst 76259.132420                       # average ReadSharedReq miss latency
system.l3cache.ReadSharedReq_avg_miss_latency::.cpu.data 78077.272727                       # average ReadSharedReq miss latency
system.l3cache.ReadSharedReq_avg_miss_latency::total 76624.087591                       # average ReadSharedReq miss latency
system.l3cache.demand_avg_miss_latency::.cpu.inst 76259.132420                       # average overall miss latency
system.l3cache.demand_avg_miss_latency::.cpu.data 71978.966346                       # average overall miss latency
system.l3cache.demand_avg_miss_latency::total 73455.118110                       # average overall miss latency
system.l3cache.overall_avg_miss_latency::.cpu.inst 76259.132420                       # average overall miss latency
system.l3cache.overall_avg_miss_latency::.cpu.data 71978.966346                       # average overall miss latency
system.l3cache.overall_avg_miss_latency::total 73455.118110                       # average overall miss latency
system.l3cache.blocked_cycles::no_mshrs             0                       # number of cycles access was blocked
system.l3cache.blocked_cycles::no_targets            0                       # number of cycles access was blocked
system.l3cache.blocked::no_mshrs                    0                       # number of cycles access was blocked
system.l3cache.blocked::no_targets                  0                       # number of cycles access was blocked
system.l3cache.avg_blocked_cycles::no_mshrs          nan                       # average number of cycles each access was blocked
system.l3cache.avg_blocked_cycles::no_targets          nan                       # average number of cycles each access was blocked
system.l3cache.ReadExReq_mshr_misses::.cpu.data          722                       # number of ReadExReq MSHR misses
system.l3cache.ReadExReq_mshr_misses::total          722                       # number of ReadExReq MSHR misses
system.l3cache.ReadSharedReq_mshr_misses::.cpu.inst          438                       # number of ReadSharedReq MSHR misses
system.l3cache.ReadSharedReq_mshr_misses::.cpu.data          110                       # number of ReadSharedReq MSHR misses
system.l3cache.ReadSharedReq_mshr_misses::total          548                       # number of ReadSharedReq MSHR misses
system.l3cache.demand_mshr_misses::.cpu.inst          438                       # number of demand (read+write) MSHR misses
system.l3cache.demand_mshr_misses::.cpu.data          832                       # number of demand (read+write) MSHR misses
system.l3cache.demand_mshr_misses::total         1270                       # number of demand (read+write) MSHR misses
system.l3cache.overall_mshr_misses::.cpu.inst          438                       # number of overall MSHR misses
system.l3cache.overall_mshr_misses::.cpu.data          832                       # number of overall MSHR misses
system.l3cache.overall_mshr_misses::total         1270                       # number of overall MSHR misses
system.l3cache.ReadExReq_mshr_miss_latency::.cpu.data     49854000                       # number of ReadExReq MSHR miss cycles
system.l3cache.ReadExReq_mshr_miss_latency::total     49854000                       # number of ReadExReq MSHR miss cycles
system.l3cache.ReadSharedReq_mshr_miss_latency::.cpu.inst     32525500                       # number of ReadSharedReq MSHR miss cycles
system.l3cache.ReadSharedReq_mshr_miss_latency::.cpu.data      8368500                       # number of ReadSharedReq MSHR miss cycles
system.l3cache.ReadSharedReq_mshr_miss_latency::total     40894000                       # number of ReadSharedReq MSHR miss cycles
system.l3cache.demand_mshr_miss_latency::.cpu.inst     32525500                       # number of demand (read+write) MSHR miss cycles
system.l3cache.demand_mshr_miss_latency::.cpu.data     58222500                       # number of demand (read+write) MSHR miss cycles
system.l3cache.demand_mshr_miss_latency::total     90748000                       # number of demand (read+write) MSHR miss cycles
system.l3cache.overall_mshr_miss_latency::.cpu.inst     32525500                       # number of overall MSHR miss cycles
system.l3cache.overall_mshr_miss_latency::.cpu.data     58222500                       # number of overall MSHR miss cycles
system.l3cache.overall_mshr_miss_latency::total     90748000                       # number of overall MSHR miss cycles
system.l3cache.ReadExReq_mshr_miss_rate::.cpu.data            1                       # mshr miss rate for ReadExReq accesses
system.l3cache.ReadExReq_mshr_miss_rate::total            1                       # mshr miss rate for ReadExReq accesses
system.l3cache.ReadSharedReq_mshr_miss_rate::.cpu.inst            1                       # mshr miss rate for ReadSharedReq accesses
system.l3cache.ReadSharedReq_mshr_miss_rate::.cpu.data            1                       # mshr miss rate for ReadSharedReq accesses
system.l3cache.ReadSharedReq_mshr_miss_rate::total            1                       # mshr miss rate for ReadSharedReq accesses
system.l3cache.demand_mshr_miss_rate::.cpu.inst            1                       # mshr miss rate for demand accesses
system.l3cache.demand_mshr_miss_rate::.cpu.data            1                       # mshr miss rate for demand accesses
system.l3cache.demand_mshr_miss_rate::total            1                       # mshr miss rate for demand accesses
system.l3cache.overall_mshr_miss_rate::.cpu.inst            1                       # mshr miss rate for overall accesses
system.l3cache.overall_mshr_miss_rate::.cpu.data            1                       # mshr miss rate for overall accesses
system.l3cache.overall_mshr_miss_rate::total            1                       # mshr miss rate for overall accesses
system.l3cache.ReadExReq_avg_mshr_miss_latency::.cpu.data 69049.861496                       # average ReadExReq mshr miss latency
system.l3cache.ReadExReq_avg_mshr_miss_latency::total 69049.861496                       # average ReadExReq mshr miss latency
system.l3cache.ReadSharedReq_avg_mshr_miss_latency::.cpu.inst 74259.132420                       # average ReadSharedReq mshr miss latency
system.l3cache.ReadSharedReq_avg_mshr_miss_latency::.cpu.data 76077.272727                       # average ReadSharedReq mshr miss latency
system.l3cache.ReadSharedReq_avg_mshr_miss_latency::total 74624.087591                       # average ReadSharedReq mshr miss latency
system.l3cache.demand_avg_mshr_miss_latency::.cpu.inst 74259.132420                       # average overall mshr miss latency
system.l3cache.demand_avg_mshr_miss_latency::.cpu.data 69978.966346                       # average overall mshr miss latency
system.l3cache.demand_avg_mshr_miss_latency::total 71455.118110                       # average overall mshr miss latency
system.l3cache.overall_avg_mshr_miss_latency::.cpu.inst 74259.132420                       # average overall mshr miss latency
system.l3cache.overall_avg_mshr_miss_latency::.cpu.data 69978.966346                       # average overall mshr miss latency
system.l3cache.overall_avg_mshr_miss_latency::total 71455.118110                       # average overall mshr miss latency
system.l3cache.replacements                         0                       # number of replacements
system.membus.snoop_filter.tot_requests          1270                       # Total number of requests made to the snoop filter.
system.membus.snoop_filter.hit_single_requests            0                       # Number of requests hitting in the snoop filter with a single holder of the requested data.
system.membus.snoop_filter.hit_multi_requests            0                       # Number of requests hitting in the snoop filter with multiple (>1) holders of the requested data.
system.membus.snoop_filter.tot_snoops               0                       # Total number of snoops made to the snoop filter.
system.membus.snoop_filter.hit_single_snoops            0                       # Number of snoops hitting in the snoop filter with a single holder of the requested data.
system.membus.snoop_filter.hit_multi_snoops            0                       # Number of snoops hitting in the snoop filter with multiple (>1) holders of the requested data.
system.membus.pwrStateResidencyTicks::UNDEFINED   3318212000                       # Cumulative time (in ticks) in various power states
system.membus.trans_dist::ReadResp                548                       # Transaction distribution
system.membus.trans_dist::ReadExReq               722                       # Transaction distribution
system.membus.trans_dist::ReadExResp              722                       # Transaction distribution
system.membus.trans_dist::ReadSharedReq           548                       # Transaction distribution
system.membus.pkt_count_system.l3cache.mem_side::system.mem_ctrl.port         2540                       # Packet count per connected master and slave (bytes)
system.membus.pkt_count_system.l3cache.mem_side::total         2540                       # Packet count per connected master and slave (bytes)
system.membus.pkt_count::total                   2540                       # Packet count per connected master and slave (bytes)
system.membus.pkt_size_system.l3cache.mem_side::system.mem_ctrl.port        81280                       # Cumulative packet size per connected master and slave (bytes)
system.membus.pkt_size_system.l3cache.mem_side::total        81280                       # Cumulative packet size per connected master and slave (bytes)
system.membus.pkt_size::total                   81280                       # Cumulative packet size per connected master and slave (bytes)
system.membus.snoops                                0                       # Total snoops (count)
system.membus.snoopTraffic                          0                       # Total snoop traffic (bytes)
system.membus.snoop_fanout::samples              1270                       # Request fanout histogram
system.membus.snoop_fanout::mean                    0                       # Request fanout histogram
system.membus.snoop_fanout::stdev                   0                       # Request fanout histogram
system.membus.snoop_fanout::underflows              0      0.00%      0.00% # Request fanout histogram
system.membus.snoop_fanout::0                    1270    100.00%    100.00% # Request fanout histogram
system.membus.snoop_fanout::1                       0      0.00%    100.00% # Request fanout histogram
system.membus.snoop_fanout::overflows               0      0.00%    100.00% # Request fanout histogram
system.membus.snoop_fanout::min_value               0                       # Request fanout histogram
system.membus.snoop_fanout::max_value               0                       # Request fanout histogram
system.membus.snoop_fanout::total                1270                       # Request fanout histogram
system.membus.reqLayer0.occupancy              635000                       # Layer occupancy (ticks)
system.membus.reqLayer0.utilization               0.0                       # Layer utilization (%)
system.membus.respLayer0.occupancy            3456250                       # Layer occupancy (ticks)
system.membus.respLayer0.utilization              0.1                       # Layer utilization (%)

---------- End Simulation Statistics   ----------
